 ****** HSPICE -- L-2016.06-SP2 linux64 (Nov 23 2016) ******                    
  Copyright (c) 1986 - 2018 by Synopsys, Inc. All Rights Reserved.              
  This software and the associated documentation are proprietary
  to Synopsys, Inc. This software may only be used in accordance
  with the terms and conditions of a written license agreement with
  Synopsys, Inc. All other use, reproduction, or distribution of
  this software is strictly prohibited.
  Input File: hw1_1b.sp                                                         
  Command line options: /usr/cad/synopsys/hspice/2016.06-sp2/hspice/linux64/hspice -i hw1_1b.sp -o hw1_1b.lis
 lic:  
 lic: FLEXlm: v11.2.1 
 lic: USER:   u105060012           HOSTNAME: ws40 
 lic: HOSTID: "6eae8b50b631"       PID:      6120 
 lic: Using FLEXlm license file: 
 lic: 26585@lsnctu 
 lic: Checkout 1 hspice 
 lic: License/Maintenance for hspice will expire on 14-jun-2018/2017.03 
 lic: 88(in_use)/90(total) FLOATING license(s) on SERVER 26585@lsnctu 
 lic:   
 

  
      
 *****************************************************************
 ******  option summary
 ******
 runlvl  = 3         bypass  = 2.0000    

          ***** job concluded
1****** HSPICE -- L-2016.06-SP2 linux64 (Nov 23 2016) ******                    
 ******  
 hw1_1b

 ****** job statistics summary tnom=  25.000 temp=  25.000 ******
  
  
 ******  Machine Information  ******
 CPU:
 model name	: Intel(R) Xeon(R) CPU E5-2620 0 @ 2.00GHz
 cpu MHz	: 1200.000
  
 OS:
 Linux version 2.6.18-371.9.1.el5 (mockbuild@builder17.centos.org) (gcc version 4.1.2 20080704 (Red Hat 4.1.2-54)) #1 SMP Tue Jun 10 17:49:56 EDT 2014


  ******  HSPICE Threads Information  ******

  Command Line Threads Count :     1
  Available CPU Count        :    12
  Actual Threads Count       :     1


  ******  Circuit Statistics  ******
  # nodes       =       6 # elements   =       4
  # resistors   =       0 # capacitors =       0 # inductors   =       0
  # mutual_inds =       0 # vccs       =       0 # vcvs        =       0
  # cccs        =       0 # ccvs       =       0 # volt_srcs   =       3
  # curr_srcs   =       0 # diodes     =       0 # bjts        =       0
  # jfets       =       0 # mosfets    =       1 # U elements  =       0
  # T elements  =       0 # W elements =       0 # B elements  =       0
  # S elements  =       0 # P elements =       0 # va device   =       0
  # vector_srcs =       0 # N elements =       0


  ******  Runtime Statistics (seconds)  ******

  analysis           time    # points   tot. iter  conv.iter
  op point           0.00           1           0
  dc sweep           1.16        3601        7204
  readin             0.01
  errchk             0.00
  setup              0.01
  output             0.00


           peak memory used        201.30 megabytes
           total cpu time            1.18 seconds
           total elapsed time        1.19 seconds
           job started at     16:47:31 03/28/2018
           job ended   at     16:47:32 03/28/2018


 lic: Release hspice token(s) 
 lic: total license checkout elapse time:        0.54(s)
