Using: /usr/bin/time -p /usr/cad/synopsys/hspice/cur/hspice/linux/hspice 1a.sp
 ****** HSPICE -- B-2008.09-SP1 32-BIT (Nov 24 2008) linux ******               
  Copyright (C) 2008 Synopsys, Inc. All Rights Reserved.                        
  Unpublished-rights reserved under US copyright laws.
  This program is protected by law and is subject to the 
  terms and conditions of the license agreement from Synopsys.
  Use of this program is your acceptance to be bound by the 
  license agreement. HSPICE is the trademark of Synopsys, Inc.
  Input File: 1a.sp                                                             
 lic:  
 lic: FLEXlm: v8.5b 
 lic: USER:   u102061112           HOSTNAME: ws36 
 lic: HOSTID: e41f1366b708         PID:      12307 
 lic: Using FLEXlm license file: 
 lic: 26585@lsnctu 
 lic: Checkout 1 hspice 
 lic: License/Maintenance for hspice will expire on 14-may-2016/2015.06 
 lic: FLOATING license(s) on SERVER lsnctu 
 lic:   
 Init: read install configuration file: /usr/cad/synopsys/hspice/cur/hspice/meta.cfg
 Init: hspice initialization file: /usr/cad/synopsys/hspice/cur/hspice/hspice.ini
 .option runlvl
 .option post=1 acct captab acout=0

 *m3 vp vp gnd gnd n_18 w=10u l=0.5u m=1
 m3 vp vb gnd gnd n_18 w=10u l=0.5u m=1
 m2 vout+ vin- vp gnd n_18 w=84u l=2.8u m=1
 m1 vout- vin+ vp gnd n_18 w=84u l=2.8u m=1


 r1 vdd vout- 100k 
 r0 vdd vout+ 100k 

 ******source******
 *i0 vdd vp 20u
 vdd vdd 0 dc=1.8
 vin+ vin+ 0 dc 0.9 ac 0.5 0
 vin- vin- 0 dc 0.9 ac 0.5 180
 vb vb 0 dc=0.49

 ******analysis******
 .op
 .ac dec 100 1 100meg
 .probe vdb(vout+,vout-)
 .print vdb(vout+,vout-)

 .alter
 

 
      
1****** HSPICE -- B-2008.09-SP1 32-BIT (Nov 24 2008) linux ******               
 ******  
 *3.1

  ******  operating point information tnom=  25.000 temp=  25.000 *****
 ***** operating point status is all       simulation time is     0.     
    node    =voltage      node    =voltage      node    =voltage

 +0:vb      = 490.0000m 0:vdd     =   1.8000  0:vin+    = 900.0000m
 +0:vin-    = 900.0000m 0:vout+   = 797.2159m 0:vout-   = 797.2159m
 +0:vp      = 469.7493m


 maximum nodal capacitance=   1.816E-12         on node     0:vp              

    nodal  capacitance table 

    node    =    cap      node    =    cap      node    =    cap

 +0:vb      =  33.3793f 0:vdd     =   0.      0:vin+    =   1.0010p
 +0:vin-    =   1.0010p 0:vout+   = 109.8035f 0:vout-   = 109.8035f
 +0:vp      =   1.8163p

 

 ****  voltage sources

 subckt                                              
 element  0:vdd      0:vin+     0:vin-     0:vb      
  volts      1.8000   900.0000m  900.0000m  490.0000m
  current  -20.0557u    0.         0.         0.     
  power     36.1002u    0.         0.         0.     

     total voltage source power dissipation=   36.1002u       watts



 **** resistors

 subckt                        
 element  0:r1       0:r0      
  r value  100.0000k  100.0000k
  v drop     1.0028     1.0028 
  current   10.0278u   10.0278u
  power     10.0558u   10.0558u



 **** mosfets


 subckt                                   
 element  0:m3       0:m2       0:m1      
 model    0:n_18.1   0:n_18.1   0:n_18.1  
 region     Saturati   Saturati   Saturati
  id        20.0557u   10.0278u   10.0278u
  ibs     -3.245e-21   -2.8168f   -2.8168f
  ibd     -365.4617a   -4.7805f   -4.7805f
  vgs      490.0000m  430.2507m  430.2507m
  vds      469.7493m  327.4665m  327.4665m
  vbs        0.      -469.7493m -469.7493m
  vth      443.4527m  426.6507m  426.6507m
  vdsat     92.6188m   63.8755m   63.8755m
  vod       46.5473m    3.6000m    3.6000m
  beta       6.4796m    9.1525m    9.1525m
  gam eff  507.4460m  519.2189m  519.2189m
  gm       352.0582u  220.3366u  220.3366u
  gds        5.8126u    1.9649u    1.9649u
  gmb       68.7080u   36.5808u   36.5808u
  cdtot     13.9076f  109.8035f  109.8035f
  cgtot     33.3793f    1.0010p    1.0010p
  cstot     40.2628f  901.1976f  901.1976f
  cbtot     29.4673f  486.0529f  486.0529f
  cgs       26.2017f  760.2138f  760.2138f
  cgd        3.6523f   29.2857f   29.2857f



 ******  
 *3.1

  ******  ac analysis tnom=  25.000 temp=  25.000 *****
x

        freq    volt db    
                   vout+   
                   vout-   
    1.00000      25.3035   
    1.02329      25.3035   
    1.04713      25.3035   
    1.07152      25.3035   
    1.09648      25.3035   
    1.12202      25.3035   
    1.14815      25.3035   
    1.17490      25.3035   
    1.20226      25.3035   
    1.23027      25.3035   
    1.25893      25.3035   
    1.28825      25.3035   
    1.31826      25.3035   
    1.34896      25.3035   
    1.38038      25.3035   
    1.41254      25.3035   
    1.44544      25.3035   
    1.47911      25.3035   
    1.51356      25.3035   
    1.54882      25.3035   
    1.58489      25.3035   
    1.62181      25.3035   
    1.65959      25.3035   
    1.69824      25.3035   
    1.73780      25.3035   
    1.77828      25.3035   
    1.81970      25.3035   
    1.86209      25.3035   
    1.90546      25.3035   
    1.94984      25.3035   
    1.99526      25.3035   
    2.04174      25.3035   
    2.08930      25.3035   
    2.13796      25.3035   
    2.18776      25.3035   
    2.23872      25.3035   
    2.29087      25.3035   
    2.34423      25.3035   
    2.39883      25.3035   
    2.45471      25.3035   
    2.51189      25.3035   
    2.57040      25.3035   
    2.63027      25.3035   
    2.69153      25.3035   
    2.75423      25.3035   
    2.81838      25.3035   
    2.88403      25.3035   
    2.95121      25.3035   
    3.01995      25.3035   
    3.09030      25.3035   
    3.16228      25.3035   
    3.23594      25.3035   
    3.31131      25.3035   
    3.38844      25.3035   
    3.46737      25.3035   
    3.54813      25.3035   
    3.63078      25.3035   
    3.71535      25.3035   
    3.80189      25.3035   
    3.89045      25.3035   
    3.98107      25.3035   
    4.07380      25.3035   
    4.16869      25.3035   
    4.26580      25.3035   
    4.36516      25.3035   
    4.46684      25.3035   
    4.57088      25.3035   
    4.67735      25.3035   
    4.78630      25.3035   
    4.89779      25.3035   
    5.01187      25.3035   
    5.12861      25.3035   
    5.24807      25.3035   
    5.37032      25.3035   
    5.49541      25.3035   
    5.62341      25.3035   
    5.75440      25.3035   
    5.88844      25.3035   
    6.02560      25.3035   
    6.16595      25.3035   
    6.30957      25.3035   
    6.45654      25.3035   
    6.60693      25.3035   
    6.76083      25.3035   
    6.91831      25.3035   
    7.07946      25.3035   
    7.24436      25.3035   
    7.41310      25.3035   
    7.58578      25.3035   
    7.76247      25.3035   
    7.94328      25.3035   
    8.12831      25.3035   
    8.31764      25.3035   
    8.51138      25.3035   
    8.70964      25.3035   
    8.91251      25.3035   
    9.12011      25.3035   
    9.33254      25.3035   
    9.54993      25.3035   
    9.77237      25.3035   
   10.00000      25.3035   
   10.23293      25.3035   
   10.47129      25.3035   
   10.71519      25.3035   
   10.96478      25.3035   
   11.22018      25.3035   
   11.48154      25.3035   
   11.74898      25.3035   
   12.02264      25.3035   
   12.30269      25.3035   
   12.58925      25.3035   
   12.88250      25.3035   
   13.18257      25.3035   
   13.48963      25.3035   
   13.80384      25.3035   
   14.12538      25.3035   
   14.45440      25.3035   
   14.79108      25.3035   
   15.13561      25.3035   
   15.48817      25.3035   
   15.84893      25.3035   
   16.21810      25.3035   
   16.59587      25.3035   
   16.98244      25.3035   
   17.37801      25.3035   
   17.78279      25.3035   
   18.19701      25.3035   
   18.62087      25.3035   
   19.05461      25.3035   
   19.49845      25.3035   
   19.95262      25.3035   
   20.41738      25.3035   
   20.89296      25.3035   
   21.37962      25.3035   
   21.87762      25.3035   
   22.38721      25.3035   
   22.90868      25.3035   
   23.44229      25.3035   
   23.98833      25.3035   
   24.54709      25.3035   
   25.11886      25.3035   
   25.70396      25.3035   
   26.30268      25.3035   
   26.91535      25.3035   
   27.54229      25.3035   
   28.18383      25.3035   
   28.84032      25.3035   
   29.51209      25.3035   
   30.19952      25.3035   
   30.90295      25.3035   
   31.62278      25.3035   
   32.35937      25.3035   
   33.11311      25.3035   
   33.88442      25.3035   
   34.67369      25.3035   
   35.48134      25.3035   
   36.30781      25.3035   
   37.15352      25.3035   
   38.01894      25.3035   
   38.90451      25.3035   
   39.81072      25.3035   
   40.73803      25.3035   
   41.68694      25.3035   
   42.65795      25.3035   
   43.65158      25.3035   
   44.66836      25.3035   
   45.70882      25.3035   
   46.77351      25.3035   
   47.86301      25.3035   
   48.97788      25.3035   
   50.11872      25.3035   
   51.28614      25.3035   
   52.48075      25.3035   
   53.70318      25.3035   
   54.95409      25.3035   
   56.23413      25.3035   
   57.54399      25.3035   
   58.88437      25.3035   
   60.25596      25.3035   
   61.65950      25.3035   
   63.09573      25.3035   
   64.56542      25.3035   
   66.06934      25.3035   
   67.60830      25.3035   
   69.18310      25.3035   
   70.79458      25.3035   
   72.44360      25.3035   
   74.13102      25.3035   
   75.85776      25.3035   
   77.62471      25.3035   
   79.43282      25.3035   
   81.28305      25.3035   
   83.17638      25.3035   
   85.11380      25.3035   
   87.09636      25.3035   
   89.12509      25.3035   
   91.20108      25.3035   
   93.32543      25.3035   
   95.49926      25.3035   
   97.72372      25.3035   
  100.00000      25.3035   
  102.32930      25.3035   
  104.71285      25.3035   
  107.15193      25.3035   
  109.64782      25.3035   
  112.20185      25.3035   
  114.81536      25.3035   
  117.48976      25.3035   
  120.22644      25.3035   
  123.02688      25.3035   
  125.89254      25.3035   
  128.82496      25.3035   
  131.82567      25.3035   
  134.89629      25.3035   
  138.03843      25.3035   
  141.25375      25.3035   
  144.54398      25.3035   
  147.91084      25.3035   
  151.35612      25.3035   
  154.88166      25.3035   
  158.48932      25.3035   
  162.18101      25.3035   
  165.95869      25.3035   
  169.82437      25.3035   
  173.78008      25.3035   
  177.82794      25.3035   
  181.97009      25.3035   
  186.20871      25.3035   
  190.54607      25.3035   
  194.98446      25.3035   
  199.52623      25.3035   
  204.17379      25.3035   
  208.92961      25.3035   
  213.79621      25.3035   
  218.77616      25.3035   
  223.87211      25.3035   
  229.08677      25.3035   
  234.42288      25.3035   
  239.88329      25.3035   
  245.47089      25.3035   
  251.18864      25.3035   
  257.03958      25.3035   
  263.02680      25.3035   
  269.15348      25.3035   
  275.42287      25.3035   
  281.83829      25.3035   
  288.40315      25.3035   
  295.12092      25.3035   
  301.99517      25.3035   
  309.02954      25.3035   
  316.22777      25.3035   
  323.59366      25.3035   
  331.13112      25.3035   
  338.84416      25.3035   
  346.73685      25.3035   
  354.81339      25.3035   
  363.07805      25.3035   
  371.53523      25.3035   
  380.18940      25.3035   
  389.04514      25.3035   
  398.10717      25.3035   
  407.38028      25.3035   
  416.86938      25.3035   
  426.57952      25.3035   
  436.51583      25.3035   
  446.68359      25.3035   
  457.08819      25.3035   
  467.73514      25.3035   
  478.63009      25.3035   
  489.77882      25.3035   
  501.18723      25.3035   
  512.86138      25.3035   
  524.80746      25.3035   
  537.03180      25.3035   
  549.54087      25.3035   
  562.34133      25.3035   
  575.43994      25.3035   
  588.84366      25.3035   
  602.55959      25.3035   
  616.59500      25.3035   
  630.95734      25.3035   
  645.65423      25.3035   
  660.69345      25.3035   
  676.08298      25.3035   
  691.83097      25.3035   
  707.94578      25.3035   
  724.43596      25.3035   
  741.31024      25.3035   
  758.57758      25.3035   
  776.24712      25.3035   
  794.32823      25.3035   
  812.83052      25.3035   
  831.76377      25.3035   
  851.13804      25.3035   
  870.96359      25.3035   
  891.25094      25.3035   
  912.01084      25.3035   
  933.25430      25.3035   
  954.99259      25.3035   
  977.23722      25.3035   
    1.00000k     25.3035   
    1.02329k     25.3035   
    1.04713k     25.3035   
    1.07152k     25.3035   
    1.09648k     25.3035   
    1.12202k     25.3035   
    1.14815k     25.3035   
    1.17490k     25.3035   
    1.20226k     25.3035   
    1.23027k     25.3035   
    1.25893k     25.3035   
    1.28825k     25.3035   
    1.31826k     25.3035   
    1.34896k     25.3035   
    1.38038k     25.3035   
    1.41254k     25.3035   
    1.44544k     25.3035   
    1.47911k     25.3035   
    1.51356k     25.3035   
    1.54882k     25.3035   
    1.58489k     25.3035   
    1.62181k     25.3035   
    1.65959k     25.3035   
    1.69824k     25.3035   
    1.73780k     25.3035   
    1.77828k     25.3035   
    1.81970k     25.3035   
    1.86209k     25.3035   
    1.90546k     25.3035   
    1.94984k     25.3035   
    1.99526k     25.3035   
    2.04174k     25.3035   
    2.08930k     25.3035   
    2.13796k     25.3035   
    2.18776k     25.3035   
    2.23872k     25.3035   
    2.29087k     25.3035   
    2.34423k     25.3035   
    2.39883k     25.3035   
    2.45471k     25.3035   
    2.51189k     25.3035   
    2.57040k     25.3035   
    2.63027k     25.3035   
    2.69153k     25.3035   
    2.75423k     25.3035   
    2.81838k     25.3035   
    2.88403k     25.3035   
    2.95121k     25.3035   
    3.01995k     25.3035   
    3.09030k     25.3035   
    3.16228k     25.3035   
    3.23594k     25.3035   
    3.31131k     25.3035   
    3.38844k     25.3035   
    3.46737k     25.3035   
    3.54813k     25.3035   
    3.63078k     25.3035   
    3.71535k     25.3035   
    3.80189k     25.3035   
    3.89045k     25.3035   
    3.98107k     25.3035   
    4.07380k     25.3035   
    4.16869k     25.3035   
    4.26580k     25.3035   
    4.36516k     25.3035   
    4.46684k     25.3035   
    4.57088k     25.3035   
    4.67735k     25.3035   
    4.78630k     25.3035   
    4.89779k     25.3035   
    5.01187k     25.3035   
    5.12861k     25.3035   
    5.24807k     25.3035   
    5.37032k     25.3035   
    5.49541k     25.3035   
    5.62341k     25.3035   
    5.75440k     25.3035   
    5.88844k     25.3035   
    6.02560k     25.3035   
    6.16595k     25.3035   
    6.30957k     25.3035   
    6.45654k     25.3035   
    6.60693k     25.3035   
    6.76083k     25.3035   
    6.91831k     25.3035   
    7.07946k     25.3035   
    7.24436k     25.3035   
    7.41310k     25.3035   
    7.58578k     25.3035   
    7.76247k     25.3035   
    7.94328k     25.3035   
    8.12831k     25.3035   
    8.31764k     25.3035   
    8.51138k     25.3035   
    8.70964k     25.3035   
    8.91251k     25.3035   
    9.12011k     25.3035   
    9.33254k     25.3035   
    9.54993k     25.3035   
    9.77237k     25.3035   
   10.00000k     25.3035   
   10.23293k     25.3035   
   10.47129k     25.3035   
   10.71519k     25.3035   
   10.96478k     25.3035   
   11.22018k     25.3035   
   11.48154k     25.3035   
   11.74898k     25.3035   
   12.02264k     25.3035   
   12.30269k     25.3035   
   12.58925k     25.3035   
   12.88250k     25.3035   
   13.18257k     25.3035   
   13.48963k     25.3035   
   13.80384k     25.3035   
   14.12538k     25.3035   
   14.45440k     25.3035   
   14.79108k     25.3035   
   15.13561k     25.3035   
   15.48817k     25.3035   
   15.84893k     25.3035   
   16.21810k     25.3035   
   16.59587k     25.3035   
   16.98244k     25.3035   
   17.37801k     25.3035   
   17.78279k     25.3035   
   18.19701k     25.3035   
   18.62087k     25.3035   
   19.05461k     25.3035   
   19.49845k     25.3035   
   19.95262k     25.3035   
   20.41738k     25.3035   
   20.89296k     25.3035   
   21.37962k     25.3035   
   21.87762k     25.3035   
   22.38721k     25.3035   
   22.90868k     25.3035   
   23.44229k     25.3035   
   23.98833k     25.3035   
   24.54709k     25.3035   
   25.11886k     25.3035   
   25.70396k     25.3035   
   26.30268k     25.3035   
   26.91535k     25.3035   
   27.54229k     25.3035   
   28.18383k     25.3035   
   28.84032k     25.3035   
   29.51209k     25.3035   
   30.19952k     25.3035   
   30.90295k     25.3035   
   31.62278k     25.3035   
   32.35937k     25.3035   
   33.11311k     25.3035   
   33.88442k     25.3035   
   34.67369k     25.3035   
   35.48134k     25.3035   
   36.30781k     25.3035   
   37.15352k     25.3035   
   38.01894k     25.3035   
   38.90451k     25.3035   
   39.81072k     25.3035   
   40.73803k     25.3035   
   41.68694k     25.3035   
   42.65795k     25.3035   
   43.65158k     25.3035   
   44.66836k     25.3035   
   45.70882k     25.3035   
   46.77351k     25.3035   
   47.86301k     25.3035   
   48.97788k     25.3035   
   50.11872k     25.3035   
   51.28614k     25.3035   
   52.48075k     25.3035   
   53.70318k     25.3035   
   54.95409k     25.3035   
   56.23413k     25.3035   
   57.54399k     25.3035   
   58.88437k     25.3035   
   60.25596k     25.3035   
   61.65950k     25.3035   
   63.09573k     25.3035   
   64.56542k     25.3035   
   66.06934k     25.3035   
   67.60830k     25.3035   
   69.18310k     25.3035   
   70.79458k     25.3035   
   72.44360k     25.3035   
   74.13102k     25.3034   
   75.85776k     25.3034   
   77.62471k     25.3034   
   79.43282k     25.3034   
   81.28305k     25.3034   
   83.17638k     25.3034   
   85.11380k     25.3034   
   87.09636k     25.3034   
   89.12509k     25.3034   
   91.20108k     25.3034   
   93.32543k     25.3034   
   95.49926k     25.3034   
   97.72372k     25.3034   
  100.00000k     25.3034   
  102.32930k     25.3034   
  104.71285k     25.3034   
  107.15193k     25.3034   
  109.64782k     25.3034   
  112.20185k     25.3033   
  114.81536k     25.3033   
  117.48976k     25.3033   
  120.22644k     25.3033   
  123.02688k     25.3033   
  125.89254k     25.3033   
  128.82496k     25.3033   
  131.82567k     25.3033   
  134.89629k     25.3033   
  138.03843k     25.3033   
  141.25375k     25.3032   
  144.54398k     25.3032   
  147.91084k     25.3032   
  151.35612k     25.3032   
  154.88166k     25.3032   
  158.48932k     25.3032   
  162.18101k     25.3031   
  165.95869k     25.3031   
  169.82437k     25.3031   
  173.78008k     25.3031   
  177.82794k     25.3031   
  181.97009k     25.3031   
  186.20871k     25.3030   
  190.54607k     25.3030   
  194.98446k     25.3030   
  199.52623k     25.3030   
  204.17379k     25.3029   
  208.92961k     25.3029   
  213.79621k     25.3029   
  218.77616k     25.3028   
  223.87211k     25.3028   
  229.08677k     25.3028   
  234.42288k     25.3027   
  239.88329k     25.3027   
  245.47089k     25.3027   
  251.18864k     25.3026   
  257.03958k     25.3026   
  263.02680k     25.3025   
  269.15348k     25.3025   
  275.42287k     25.3024   
  281.83829k     25.3024   
  288.40315k     25.3023   
  295.12092k     25.3023   
  301.99517k     25.3022   
  309.02954k     25.3021   
  316.22777k     25.3021   
  323.59366k     25.3020   
  331.13112k     25.3019   
  338.84416k     25.3019   
  346.73685k     25.3018   
  354.81339k     25.3017   
  363.07805k     25.3016   
  371.53523k     25.3015   
  380.18940k     25.3014   
  389.04514k     25.3013   
  398.10717k     25.3012   
  407.38028k     25.3011   
  416.86938k     25.3010   
  426.57952k     25.3009   
  436.51583k     25.3008   
  446.68359k     25.3006   
  457.08819k     25.3005   
  467.73514k     25.3004   
  478.63009k     25.3002   
  489.77882k     25.3001   
  501.18723k     25.2999   
  512.86138k     25.2997   
  524.80746k     25.2996   
  537.03180k     25.2994   
  549.54087k     25.2992   
  562.34133k     25.2990   
  575.43994k     25.2988   
  588.84366k     25.2985   
  602.55959k     25.2983   
  616.59500k     25.2980   
  630.95734k     25.2978   
  645.65423k     25.2975   
  660.69345k     25.2972   
  676.08298k     25.2969   
  691.83097k     25.2966   
  707.94578k     25.2963   
  724.43596k     25.2960   
  741.31024k     25.2956   
  758.57758k     25.2952   
  776.24712k     25.2948   
  794.32823k     25.2944   
  812.83052k     25.2940   
  831.76377k     25.2936   
  851.13804k     25.2931   
  870.96359k     25.2926   
  891.25094k     25.2921   
  912.01084k     25.2915   
  933.25430k     25.2910   
  954.99259k     25.2904   
  977.23722k     25.2898   
    1.00000x     25.2891   
    1.02329x     25.2884   
    1.04713x     25.2877   
    1.07152x     25.2870   
    1.09648x     25.2862   
    1.12202x     25.2854   
    1.14815x     25.2845   
    1.17490x     25.2836   
    1.20226x     25.2827   
    1.23027x     25.2817   
    1.25893x     25.2807   
    1.28825x     25.2796   
    1.31826x     25.2785   
    1.34896x     25.2773   
    1.38038x     25.2761   
    1.41254x     25.2748   
    1.44544x     25.2735   
    1.47911x     25.2721   
    1.51356x     25.2706   
    1.54882x     25.2690   
    1.58489x     25.2674   
    1.62181x     25.2657   
    1.65959x     25.2640   
    1.69824x     25.2621   
    1.73780x     25.2602   
    1.77828x     25.2581   
    1.81970x     25.2560   
    1.86209x     25.2538   
    1.90546x     25.2514   
    1.94984x     25.2490   
    1.99526x     25.2464   
    2.04174x     25.2438   
    2.08930x     25.2410   
    2.13796x     25.2380   
    2.18776x     25.2350   
    2.23872x     25.2318   
    2.29087x     25.2284   
    2.34423x     25.2249   
    2.39883x     25.2212   
    2.45471x     25.2174   
    2.51189x     25.2134   
    2.57040x     25.2092   
    2.63027x     25.2048   
    2.69153x     25.2002   
    2.75423x     25.1954   
    2.81838x     25.1904   
    2.88403x     25.1851   
    2.95121x     25.1796   
    3.01995x     25.1738   
    3.09030x     25.1678   
    3.16228x     25.1615   
    3.23594x     25.1549   
    3.31131x     25.1481   
    3.38844x     25.1409   
    3.46737x     25.1334   
    3.54813x     25.1255   
    3.63078x     25.1173   
    3.71535x     25.1087   
    3.80189x     25.0997   
    3.89045x     25.0904   
    3.98107x     25.0806   
    4.07380x     25.0703   
    4.16869x     25.0597   
    4.26580x     25.0485   
    4.36516x     25.0368   
    4.46684x     25.0247   
    4.57088x     25.0120   
    4.67735x     24.9987   
    4.78630x     24.9848   
    4.89779x     24.9704   
    5.01187x     24.9553   
    5.12861x     24.9395   
    5.24807x     24.9231   
    5.37032x     24.9060   
    5.49541x     24.8881   
    5.62341x     24.8695   
    5.75440x     24.8501   
    5.88844x     24.8298   
    6.02560x     24.8087   
    6.16595x     24.7867   
    6.30957x     24.7638   
    6.45654x     24.7400   
    6.60693x     24.7152   
    6.76083x     24.6893   
    6.91831x     24.6624   
    7.07946x     24.6344   
    7.24436x     24.6053   
    7.41310x     24.5750   
    7.58578x     24.5435   
    7.76247x     24.5107   
    7.94328x     24.4767   
    8.12831x     24.4414   
    8.31764x     24.4047   
    8.51138x     24.3666   
    8.70964x     24.3271   
    8.91251x     24.2861   
    9.12011x     24.2435   
    9.33254x     24.1994   
    9.54993x     24.1537   
    9.77237x     24.1064   
   10.00000x     24.0574   
   10.23293x     24.0066   
   10.47129x     23.9541   
   10.71519x     23.8998   
   10.96478x     23.8436   
   11.22018x     23.7856   
   11.48154x     23.7256   
   11.74898x     23.6637   
   12.02264x     23.5998   
   12.30269x     23.5339   
   12.58925x     23.4660   
   12.88250x     23.3960   
   13.18257x     23.3238   
   13.48963x     23.2495   
   13.80384x     23.1731   
   14.12538x     23.0945   
   14.45440x     23.0137   
   14.79108x     22.9306   
   15.13561x     22.8453   
   15.48817x     22.7577   
   15.84893x     22.6679   
   16.21810x     22.5758   
   16.59587x     22.4814   
   16.98244x     22.3847   
   17.37801x     22.2857   
   17.78279x     22.1844   
   18.19701x     22.0809   
   18.62087x     21.9750   
   19.05461x     21.8668   
   19.49845x     21.7564   
   19.95262x     21.6436   
   20.41738x     21.5287   
   20.89296x     21.4115   
   21.37962x     21.2920   
   21.87762x     21.1704   
   22.38721x     21.0466   
   22.90868x     20.9207   
   23.44229x     20.7926   
   23.98833x     20.6624   
   24.54709x     20.5301   
   25.11886x     20.3958   
   25.70396x     20.2595   
   26.30268x     20.1213   
   26.91535x     19.9810   
   27.54229x     19.8389   
   28.18383x     19.6949   
   28.84032x     19.5491   
   29.51209x     19.4015   
   30.19952x     19.2522   
   30.90295x     19.1011   
   31.62278x     18.9484   
   32.35937x     18.7941   
   33.11311x     18.6381   
   33.88442x     18.4806   
   34.67369x     18.3217   
   35.48134x     18.1612   
   36.30781x     17.9993   
   37.15352x     17.8361   
   38.01894x     17.6715   
   38.90451x     17.5056   
   39.81072x     17.3385   
   40.73803x     17.1701   
   41.68694x     17.0006   
   42.65795x     16.8299   
   43.65158x     16.6581   
   44.66836x     16.4852   
   45.70882x     16.3113   
   46.77351x     16.1365   
   47.86301x     15.9606   
   48.97788x     15.7839   
   50.11872x     15.6062   
   51.28614x     15.4277   
   52.48075x     15.2484   
   53.70318x     15.0683   
   54.95409x     14.8874   
   56.23413x     14.7058   
   57.54399x     14.5235   
   58.88437x     14.3405   
   60.25596x     14.1569   
   61.65950x     13.9727   
   63.09573x     13.7879   
   64.56542x     13.6025   
   66.06934x     13.4166   
   67.60830x     13.2301   
   69.18310x     13.0432   
   70.79458x     12.8558   
   72.44360x     12.6680   
   74.13102x     12.4797   
   75.85776x     12.2911   
   77.62471x     12.1021   
   79.43282x     11.9127   
   81.28305x     11.7229   
   83.17638x     11.5329   
   85.11380x     11.3425   
   87.09636x     11.1519   
   89.12509x     10.9610   
   91.20108x     10.7699   
   93.32543x     10.5785   
   95.49926x     10.3869   
   97.72372x     10.1951   
  100.00000x     10.0032   
y

          ***** job concluded
1****** HSPICE -- B-2008.09-SP1 32-BIT (Nov 24 2008) linux ******               
 ******  
 *3.1

  ******  job statistics summary tnom=  25.000 temp=  25.000 *****

  ******  HSPICE Threads Information  ******
  Command Line Threads Count:                      0
  Available CPU Count:                             8
  Actual Model Evaluation(Load) Threads Count:     1
  Actual Solver Threads Count:                     1


  ******  Circuit Statistics  ******
  # nodes       =      14  # elements   =       9
  # resistors   =       2  # capacitors =       0  # inductors   =       0
  # mutual_inds =       0  # vccs       =       0  # vcvs        =       0
  # cccs        =       0  # ccvs       =       0  # volt_srcs   =       4
  # curr_srcs   =       0  # diodes     =       0  # bjts        =       0
  # jfets       =       0  # mosfets    =       3  # U elements  =       0
  # T elements  =       0  # W elements =       0  # B elements  =       0
  # S elements  =       0  # P elements =       0  # va device   =       0


  ******  Runtime Statistics (seconds)  ******

  analysis           time    # points   tot. iter  conv.iter
  op point           0.00           1           7
  ac analysis        0.01         801         801
  readin             0.04
  errchk             0.00
  setup              0.00
  output             0.00


           total memory used          208  kbytes
           total cpu time            0.05 seconds
           total elapsed time        0.20 seconds
           job started at     16:55:14 05/05/2016
           job ended   at     16:55:14 05/05/2016


1****** HSPICE -- B-2008.09-SP1 32-BIT (Nov 24 2008) linux ******               
 ******  
 

  ******    alter processing listing tnom=  25.000 temp=  25.000 *****
 .lib "cic018.l" ff
 .param
 *1.8v nmos 
 +  dtox_n_18      =  -1.2000e-10     	dxl_n_18       =  -1.2600e-08                
 +  dxw_n_18       =   2.2000e-08        dvth0_n_18     =  -1.2500e-02                
 +  du0_n_18       =   1.2000e+01        dlvth0_n_18    =  -7.2000e-04
 +  dwvth0_n_18    =  -1.2100e-02        dwu0_n_18      =   2.2000e+00
 +  dpvth0_n_18    =   6.2000e-04        dpvsat_n_18    =  -8.2000e+01
 +  dcgdo_n_18     =   2.2500e-11        dcgso_n_18     =   2.2500e-11                
 +  dcj_n_18       =  -1.2300e-04        dcjsw_n_18     =  -1.2400e-11                
 +  dcjgate_n_18   =  -5.2000e-11 

 *1.8v pmos 
 +  dtox_p_18      =  -1.5000e-10        du0_p_18       =   3.5000e+00
 +  dxl_p_18       =  -8.5000e-09        dxw_p_18       =   1.5000e-08                
 +  dvth0_p_18     =   1.5000e-02        dlvth0_p_18    =  -1.5000e-03
 +  dwvth0_p_18    =   8.5000e-03
 +  dpvth0_p_18    =   1.5000e-05        dpvsat_p_18    =  -2.5000e+01
 +  dcgdo_p_18     =   2.5540e-11                
 +  dcgso_p_18     =   2.5540e-11        dcj_p_18       =  -1.5400e-04                
 +  dcjsw_p_18     =  -1.5400e-11        dcjgate_p_18   =  -4.5000e-11                

 *1.8v nmos deep_nwell
 +  dtox_n_bpw_18      =  -1.5000e-10    dxl_n_bpw_18       =  -1.3600e-08                
 +  dxw_n_bpw_18       =   2.5000e-08    dvth0_n_bpw_18     =  -1.3500e-02                
 +  du0_n_bpw_18       =   1.5000e+01    dlvth0_n_bpw_18    =  -7.3000e-04
 +  dwvth0_n_bpw_18    =  -1.5100e-02    dwu0_n_bpw_18      =   2.3000e+00
 +  dpvth0_n_bpw_18    =   6.5000e-04    dpvsat_n_bpw_18    =  -8.3000e+01
 +  dcgdo_n_bpw_18     =   2.5500e-11    dcgso_n_bpw_18     =   2.3500e-11                
 +  dcj_n_bpw_18       =  -1.5300e-04    dcjsw_n_bpw_18     =  -1.3400e-11                
 +  dcjgate_n_bpw_18   =  -5.5000e-11 

 *3.3v nmos 
 +dtox_n_33     = -6e-10        	dlint_n_33    = 9.3e-9      	dwint_n_33     = -3e-9
 +dvth0_n_33    = -0.05         	dcgdo_n_33    = 2.7e-11     	dcgso_n_33     = 2.2e-11


 *3.3v pmos
 +dtox_p_33     = -6e-10   	dlint_p_33    = 1.21e-8     	dwint_p_33     = -1e-8 
 +dvth0_p_33    = 0.05	  	dcgdo_p_33    = 2.6e-11     	dcgso_p_33     = 2.7e-11

 *3.3v nmos deep_nwell
 +dtox_n_bpw_33 = -5e-10 	dlint_n_bpw_33 = 9.5e-9  	dwint_n_bpw_33     = -4e-9
 +dvth0_n_bpw_33= -0.06  	dcgdo_n_bpw_33 = 2.7e-11 	dcgso_n_bpw_33     = 2.7e-11

 *1.8v low vth nmos
 +dtox_n_lv_18     = -2.5e-10 	dlint_n_lv_18    = 1.6e-8 	dwint_n_lv_18     = -1e-8 
 +dvth0_n_lv_18    = -0.05   	dcgdo_n_lv_18    = -10*1.2    	dcgso_n_lv_18     = -10*1.2

 *1.8v low vth pmos
 +dtox_p_lv_18     = -2.5e-10 	dlint_p_lv_18    = 0.952e-8 	dwint_p_lv_18     = -1e-8 
 +dvth0_p_lv_18    = 0.05   	dcgdo_p_lv_18    = -10*1.2    	dcgso_p_lv_18     = -10*1.2

 *3.3v low vth nmos
 +dtox_n_lv_33     = -5e-10 	dlint_n_lv_33    = 2.56e-8 	dwint_n_lv_33     = -1e-8 
 +dvth0_n_lv_33    = -0.05   	dcgdo_n_lv_33    = -10*1.2    	dcgso_n_lv_33     = -10*1.2

 *3.3v low vth pmos
 +dtox_p_lv_33     = -5e-10 	dlint_p_lv_33    = 1.68e-8 	dwint_p_lv_33     = -1e-8 
 +dvth0_p_lv_33    = 0.05   	dcgdo_p_lv_33    = -10*1.2    	dcgso_p_lv_33     = -10*1.2

 *1.8v zero vt nmos 
 +dtox_n_zero_18  = -2.6e-10 dlint_n_zero_18  = 4.29e-8 dwint_n_zero_18 = 6.51e-8
 +dvth0_n_zero_18 = -0.22    dcgdo_n_zero_18  = 4.0e-11 dcgso_n_zero_18 = 4.0e-11

 *3.3v zero vt nmos 
 +dtox_n_zero_33  = 5e-10   	dlint_n_zero_33  = -8.34e-8   	dwint_n_zero_33 = 1e-8
 +dvth0_n_zero_33 = 0.05   	dcgdo_n_zero_33  = -10*0.9  	dcgso_n_zero_33 = -10*0.9


 +  drend_rnnpo    =  -7.500e-06               
 +  drs_rnnpo      =  -2.250e+01               
 +  ddw_rnnpo      =   5.000e-08                             
 +  drend_rnppo    =  -2.520e-05               
 +  drs_rnppo      =  -8.000e+01               
 +  ddw_rnppo      =   1.000e-08               
 +  drend_rnhr1000 =  -1.420e-04               
 +  drs_rnhr1000   =  -2.975e+02               
 +  ddw_rnhr1000   =   1.000e-08 

 .lib 'cic018.l' mos_18 
 *.lib './mm180_reg18_v121.lib' tt
 .model n_18.1 nmos
 *****model selectors/controllers*********************************
 +  level     =   4.9000e+01                          version   =   3.2000e+00  
 +  binunit   =   1.0000e+00                          mobmod    =   1.0000e+00                           
 +  capmod    =   2.0000e+00                          nqsmod    =   0.0000e+00                        
 +  noimod    =   1.0000e+00 

 *****process parameters******************************************
 +  tox       =  '4.2000e-09+dtox_n_18'               toxm      =   4.2000e-09                        
 +  xj        =   1.6000e-07                          nch       =   3.7446e+17                        
 +  rsh       =   8.0000e+00                          ngate     =   1.0000e+23


 *****basic model parameters**************************************
 +  vth0      =  '3.0750e-01+dvth0_n_18'           k1        =   4.5780e-01                     
 +  k2        =  -2.6380e-02                          k3        =  -1.0880e+01                        
 +  k3b       =   2.3790e-01                          w0        =  -8.8130e-08                        
 +  nlx       =   4.2790e-07                          dvt0      =   4.0420e-01                        
 +  dvt1      =   3.2370e-01                          dvt2      =  -8.6020e-01                        
 +  dvt0w     =   3.8300e-01                          dvt1w     =   6.0000e+05                        
 +  dvt2w     =  -2.5000e-02                          lint      =   1.5870e-08                        
 +  wint      =   1.0220e-08                          dwg       =  -3.3960e-09                        
 +  dwb       =   1.3460e-09                          u0        =  '3.2410e+02+du0_n_18'                       
 +  ua        =  -9.2010e-10                          ub        =   1.9070e-18
 +  uc        =   4.3550e-11                          vsat      =   7.2580e+04 
 +  a0        =   1.9300e+00                          ags       =   5.0720e-01                        
 +  b0        =   1.4860e-06                          b1        =   9.0640e-06                        
 +  keta      =   1.7520e-02                          a1        =   0.0000e+00                        
 +  a2        =   1.0000e+00                          voff      =  -1.0880e-01                        
 +  nfactor   =   1.0380e+00                          cit       =  -1.5110e-03                        
 +  cdsc      =   2.2750e-03                          cdscd     =  -5.0000e-04                        
 +  cdscb     =   8.2410e-04                          eta0      =   1.0040e-03                        
 +  etab      =  -1.4590e-03                          dsub      =   1.5920e-03                        
 +  pclm      =   1.0910e+00                          pdiblc1   =   3.0610e-03                        
 +  pdiblc2   =   1.0000e-06                          pdiblcb   =   0.0000e+00                        
 +  drout     =   1.5920e-03                          pscbe1    =   4.8660e+08                        
 +  pscbe2    =   2.8000e-07                          pvag      =  -2.9580e-01                        


 *****parameters for asymmetric and bias-dependent rds model******
 +  rdsw      =   4.9050e+00                          prwg      =   0.0000e+00                        
 +  prwb      =   0.0000e+00                          wr        =   1.0000e+00


 *****impact ionization current model parameters******************
 +  alpha0    =   0.0000e+00                          alpha1    =   0.0000e+00                        
 +  beta0     =   3.0000e+01                        


 *****charge and capacitance model parameters*********************
 +  xpart     =   1.0000e+00                          	cgso      =  '2.3500e-10+dcgso_n_18'         
 +  cgdo      =  '2.3500e-10+dcgdo_n_18'           	cgbo      =   0.0000e+00                        
 +  cgsl      =   0.0000e+00                          	cgdl      =   0.0000e+00                        
 +  ckappa    =   6.0000e-01                          	cf        =   1.5330e-10                        
 +  clc       =   1.0000e-07                          	cle       =   6.0000e-01                        
 +  dlc       =   4.0000e-08                          	dwc       =   0.0000e+00                        
 +  vfbcv     =  -1.0000e+00                          	noff      =   1.0000e+00                        
 +  voffcv    =   0.0000e+00                          	acde      =   1.0000e+00                        
 +  moin      =   1.5000e+01                        


 *****flicker and thermal noise model parameters******************
 +  noia      =   1.0000e+20                          	noib      =   5.0000e+04                        
 +  noic      =  -1.4000e-12                          	em        =   4.2000e+07                        
 +  af        =   1.0000e+00                          	ef        =   1.0000e+00                        
 +  kf        =   0.0000e+00                        


 *****layout-dependent parasitics model parameters****************
 +  lmin      =   1.8000e-07                          	lmax      =   5.0000e-05
 +  wmin      =   2.5000e-07                          	wmax      =   1.0000e-04
 +  xl        = '-1.0500e-08+dxl_n_18'             	xw        =  '0.0000e-00+dxw_n_18'           


 *****asymmetric source/drain junction diode model parameters*****
 +  js        =   1.0000e-06                          	jsw       =   7.0000e-11                        
 +  cj        =  '1.0300e-03+dcj_n_18'             	mj        =   4.4300e-01                        
 +  pb        =   8.2300e-01                          	cjsw      =  '1.3400e-10+dcjsw_n_18'         
 +  mjsw      =   3.3000e-01                        


 *****temperature dependence parameters***************************
 +  tnom      =   2.5000e+01                          	ute       =  -1.1860e+00                        
 +  kt1       =  -2.2550e-01                          	kt1l      =  -4.2750e-09                        
 +  kt2       =  -2.5270e-02                          	ua1       =   2.2530e-09                        
 +  ub1       =  -2.6730e-18                          	uc1       =  -3.8320e-11                        
 +  at        =   1.4490e+04                          	prt       =  -1.0180e+01                        
 +  xti       =   3.0000e+00                        


 *****dw and dl parameters****************************************
 +  wl        =   0.0000e+00                          wln       =   1.0000e+00                        
 +  ww        =   7.2620e-16                          wwn       =   1.0000e+00                        
 +  wwl       =   0.0000e+00                          ll        =  -1.0620e-15                        
 +  lln       =   1.0000e+00                          lw        =   2.9960e-15                        
 +  lwn       =   1.0000e+00                          lwl       =   0.0000e+00                        
 +  llc       =  -6.6400e-15                          lwc       =   0.0000e+00                        
 +  lwlc      =   0.0000e+00                          wlc       =   0.0000e+00                        
 +  wwc       =   0.0000e+00                          wwlc      =   0.0000e+00                        


 *****other parameters********************************************
 +  lvth0     = '-1.0000e-03+dlvth0_n_18'          	wvth0     =  '6.027e-02+dwvth0_n_18'
 +  pvth0     =  '0+dpvth0_n_18'                   	lnlx      =  -2.8540e-08 
 +  wnlx      =   0.0000e+00                          	pnlx      =   0.0000e+00
 +  wua       =  -1.8800e-11                          	wu0       =  '5.4000e-01+dwu0_n_18'
 +  pub       =   3.8000e-20                          	pw0       =   1.3000e-09 
 +  wrdsw     =   0.0000e+00                          	weta0     =   0.0000e+00                        
 +  wetab     =   0.0000e+00                          	leta0     =   1.5740e-03                        
 +  letab     =   0.0000e+00                          	peta0     =   0.0000e+00                        
 +  petab     =   0.0000e+00                          	wpclm     =   0.0000e+00                        
 +  wvoff     =  -4.0780e-04                          	lvoff     =  -4.2080e-03                        
 +  pvoff     =  -3.7880e-04                          	wa0       =  -4.7310e-02                        
 +  la0       =  -4.6670e-01                          	pa0       =  -2.6490e-02  
 +  wags      =   4.2420e-03                          	lags      =   3.0280e-01                        
 +  pags      =   0.0000e+00                          	wketa     =   0.0000e+00                        
 +  lketa     =  -1.9420e-02                          	pketa     =   0.0000e+00                        
 +  wute      =   6.3730e-02                          	lute      =   0.0000e+00                        
 +  pute      =   0.0000e+00                          	wvsat     =   5.0660e+03                    
 +  lvsat     =   0.0000e+00                          	pvsat     =  '0.0000e+00+dpvsat_n_18'                        
 +  lpdiblc2  =  -4.7520e-03                          	wat       =   7.0670e+03                        
 +  wprt      =   0.0000e+00                          	acm       =   3.0000e+00                        
 +  ldif      =   8.0000e-08                          	hdif      =   2.6000e-07                        
 +  n         =   1.0000e+00                          	php       =   8.8000e-01                        
 +  cjgate    =  '5.0000e-10+dcjgate_n_18'         	ctp       =   9.2400e-04                        
 +  ptp       =   9.2400e-04                          	cta       =   9.2900e-04                        
 +  pta       =   1.5800e-03                          	elm       =   5.0000e+00                        
 +  tlevc     =   1.0000e+00                        
                         
                        

 .model n_bpw_18.1 nmos
 *****model selectors/controllers*********************************
 +  level     =   4.9000e+01                          version   =   3.2000e+00  
 +  binunit   =   1.0000e+00                          mobmod    =   1.0000e+00                           
 +  capmod    =   2.0000e+00                          nqsmod    =   0.0000e+00                        
 +  noimod    =   1.0000e+00 

 *****process parameters******************************************
 +  tox       =  '4.2000e-09+dtox_n_bpw_18'            toxm      =   4.2000e-09                        
 +  xj        =   1.6000e-07                          nch       =   3.7446e+17                        
 +  rsh       =   8.0000e+00                          ngate     =   1.0000e+23


 *****basic model parameters**************************************
 +  vth0      =  '3.0750e-01+dvth0_n_bpw_18'           k1        =   4.5780e-01                     
 +  k2        =  -2.6380e-02                          k3        =  -1.0880e+01                        
 +  k3b       =   2.3790e-01                          w0        =  -8.8130e-08                        
 +  nlx       =   4.2790e-07                          dvt0      =   4.0420e-01                        
 +  dvt1      =   3.2370e-01                          dvt2      =  -8.6020e-01                        
 +  dvt0w     =   3.8300e-01                          dvt1w     =   6.0000e+05                        
 +  dvt2w     =  -2.5000e-02                          lint      =   1.5870e-08                        
 +  wint      =   1.0220e-08                          dwg       =  -3.3960e-09                        
 +  dwb       =   1.3460e-09                          u0        =  '3.2410e+02+du0_n_bpw_18'                       
 +  ua        =  -9.2010e-10                          ub        =   1.9070e-18
 +  uc        =   4.3550e-11                          vsat      =   7.2580e+04 
 +  a0        =   1.9300e+00                          ags       =   5.0720e-01                        
 +  b0        =   1.4860e-06                          b1        =   9.0640e-06                        
 +  keta      =   1.7520e-02                          a1        =   0.0000e+00                        
 +  a2        =   1.0000e+00                          voff      =  -1.0880e-01                        
 +  nfactor   =   1.0380e+00                          cit       =  -1.5110e-03                        
 +  cdsc      =   2.2750e-03                          cdscd     =  -5.0000e-04                        
 +  cdscb     =   8.2410e-04                          eta0      =   1.0040e-03                        
 +  etab      =  -1.4590e-03                          dsub      =   1.5920e-03                        
 +  pclm      =   1.0910e+00                          pdiblc1   =   3.0610e-03                        
 +  pdiblc2   =   1.0000e-06                          pdiblcb   =   0.0000e+00                        
 +  drout     =   1.5920e-03                          pscbe1    =   4.8660e+08                        
 +  pscbe2    =   2.8000e-07                          pvag      =  -2.9580e-01                        


 *****parameters for asymmetric and bias-dependent rds model******
 +  rdsw      =   4.9050e+00                          prwg      =   0.0000e+00                        
 +  prwb      =   0.0000e+00                          wr        =   1.0000e+00


 *****impact ionization current model parameters******************
 +  alpha0    =   0.0000e+00                          alpha1    =   0.0000e+00                        
 +  beta0     =   3.0000e+01                        



 *****charge and capacitance model parameters*********************
 +  xpart     =   1.0000e+00                          cgso      =  '2.3500e-10+dcgso_n_bpw_18'         
 +  cgdo      =  '2.3500e-10+dcgdo_n_bpw_18'           cgbo      =   0.0000e+00                        
 +  cgsl      =   0.0000e+00                          cgdl      =   0.0000e+00                        
 +  ckappa    =   6.0000e-01                          cf        =   1.5330e-10                        
 +  clc       =   1.0000e-07                          cle       =   6.0000e-01                        
 +  dlc       =   4.0000e-08                          dwc       =   0.0000e+00                        
 +  vfbcv     =  -1.0000e+00                          noff      =   1.0000e+00                        
 +  voffcv    =   0.0000e+00                          acde      =   1.0000e+00                        
 +  moin      =   1.5000e+01                        


 *****high-speed/rf model parameters******************************


 *****flicker and thermal noise model parameters******************
 +  noia      =   1.0000e+20                          noib      =   5.0000e+04                        
 +  noic      =  -1.4000e-12                          em        =   4.2000e+07                        
 +  af        =   1.0000e+00                          ef        =   1.0000e+00                        
 +  kf        =   0.0000e+00                        


 *****layout-dependent parasitics model parameters****************
 +  lmin      =   1.8000e-07                          lmax      =   5.0000e-05
 +  wmin      =   2.5000e-07                          wmax      =   1.0000e-04
 +  xl        = '-1.0500e-08+dxl_n_bpw_18'             xw        =  '0.0000e-00+dxw_n_bpw_18'           


 *****asymmetric source/drain junction diode model parameters*****
 +  js        =   1.0000e-06                          jsw       =   7.0000e-11                        
 +  cj        =  '1.0300e-03+dcj_n_bpw_18'             mj        =   4.4300e-01                        
 +  pb        =   8.2300e-01                          cjsw      =  '1.3400e-10+dcjsw_n_bpw_18'         
 +  mjsw      =   3.3000e-01                        


 *****temperature dependence parameters***************************
 +  tnom      =   2.5000e+01                          ute       =  -1.1860e+00                        
 +  kt1       =  -2.2550e-01                          kt1l      =  -4.2750e-09                        
 +  kt2       =  -2.5270e-02                          ua1       =   2.2530e-09                        
 +  ub1       =  -2.6730e-18                          uc1       =  -3.8320e-11                        
 +  at        =   1.4490e+04                          prt       =  -1.0180e+01                        
 +  xti       =   3.0000e+00                        


 *****dw and dl parameters****************************************
 +  wl        =   0.0000e+00                          wln       =   1.0000e+00                        
 +  ww        =   7.2620e-16                          wwn       =   1.0000e+00                        
 +  wwl       =   0.0000e+00                          ll        =  -1.0620e-15                        
 +  lln       =   1.0000e+00                          lw        =   2.9960e-15                        
 +  lwn       =   1.0000e+00                          lwl       =   0.0000e+00                        
 +  llc       =  -6.6400e-15                          lwc       =   0.0000e+00                        
 +  lwlc      =   0.0000e+00                          wlc       =   0.0000e+00                        
 +  wwc       =   0.0000e+00                          wwlc      =   0.0000e+00                        



 *****other parameters********************************************
 +  lvth0     = '-1.0000e-03+dlvth0_n_bpw_18'          wvth0     =  '6.027e-02+dwvth0_n_bpw_18'
 +  pvth0     =  '0+dpvth0_n_bpw_18'                   lnlx      =  -2.8540e-08 
 +  wnlx      =   0.0000e+00                          pnlx      =   0.0000e+00
 +  wua       =  -1.8800e-11                          wu0       =  '5.4000e-01+dwu0_n_bpw_18'
 +  pub       =   3.8000e-20                          pw0       =   1.3000e-09 
 +  wrdsw     =   0.0000e+00                          weta0     =   0.0000e+00                        
 +  wetab     =   0.0000e+00                          leta0     =   1.5740e-03                        
 +  letab     =   0.0000e+00                          peta0     =   0.0000e+00                        
 +  petab     =   0.0000e+00                          wpclm     =   0.0000e+00                        
 +  wvoff     =  -4.0780e-04                          lvoff     =  -4.2080e-03                        
 +  pvoff     =  -3.7880e-04                          wa0       =  -4.7310e-02                        
 +  la0       =  -4.6670e-01                          pa0       =  -2.6490e-02  
 +  wags      =   4.2420e-03                          lags      =   3.0280e-01                        
 +  pags      =   0.0000e+00                          wketa     =   0.0000e+00                        
 +  lketa     =  -1.9420e-02                          pketa     =   0.0000e+00                        
 +  wute      =   6.3730e-02                          lute      =   0.0000e+00                        
 +  pute      =   0.0000e+00                          wvsat     =   5.0660e+03                    
 +  lvsat     =   0.0000e+00                          pvsat     =  '0.0000e+00+dpvsat_n_bpw_18'                        
 +  lpdiblc2  =  -4.7520e-03                          wat       =   7.0670e+03                        
 +  wprt      =   0.0000e+00                          acm       =   3.0000e+00                        
 +  ldif      =   8.0000e-08                          hdif      =   2.6000e-07                        
 +  n         =   1.0000e+00                          php       =   8.8000e-01                        
 +  cjgate    =  '5.0000e-10+dcjgate_n_bpw_18'         ctp       =   9.2400e-04                        
 +  ptp       =   9.2400e-04                          cta       =   9.2900e-04                        
 +  pta       =   1.5800e-03                          elm       =   5.0000e+00                        
 +  tlevc     =   1.0000e+00                        
             



 ******************************************************************************************
 *         1.8v pmos model               *
 ******************************************************************************************

 .model p_18.1 pmos
 *****model selectors/controllers*********************************
 +  level     =   4.9000e+01                          mobmod    =   3.0000e+00                        
 +  version   =   3.2000e+00                          capmod    =   2.0000e+00                        
 +  binunit   =   1.0000e+00                          nqsmod    =   0.0000e+00
 +  noimod    =   1.0000e+00 

 *****process parameters******************************************
 +  tox       =  '4.2000e-09+dtox_p_18'               toxm      =   4.2000e-09                        
 +  xj        =   1.0000e-07                          nch       =   6.2310e+17                        
 +  ngate     =   1.0000e+23 

 *****basic model parameters**************************************
 +  vth0      = '-4.5550e-01+dvth0_p_18'              k1        =   5.7040e-01                        
 +  k2        =   6.9730e-03                          k3        =  -2.8330e+00                        
 +  k3b       =   1.3260e+00                          w0        =  -1.9430e-07                        
 +  nlx       =   2.5300e-07                          dvt0      =   4.8850e-01                        
 +  dvt1      =   7.5780e-02                          dvt2      =   1.1870e-01                        
 +  dvt0w     =  -1.2610e-01                          dvt1w     =   2.4790e+04                        
 +  dvt2w     =   6.9150e-01                          lint      =  -1.0410e-08                        
 +  wint      =  -1.5250e-07                          dwg       =  -1.2510e-07                        
 +  dwb       =  -1.0390e-07                          u0        =  '1.2450e+02+du0_p_18'  
 +  ua        =   1.5400e-09                          ub        =   2.6460e-19
 +  uc        =  -9.5870e-02                          vsat      =   5.3400e+04                                                                                            
 +  a0        =   1.3500e+00                          ags       =   3.8180e-01                        
 +  b0        =  -3.0880e-07                          b1        =   0.0000e+00                        
 +  keta      =   1.0440e-02                          a1        =   0.0000e+00                        
 +  a2        =   1.0000e+00                          voff      =  -1.0730e-01                                                                    
 +  nfactor   =   1.5350e-00                          cit       =  -1.0670e-03 
 +  cdsc      =   7.5780e-04                          cdscd     =  -2.8830e-05                        
 +  cdscb     =   1.0000e-04                          eta0      =   1.0710e+00                        
 +  etab      =  -9.2910e-01                          dsub      =   1.9191e+00
 +  pclm      =   2.6530e+00                          pdiblc1   =   0.0000e+00                        
 +  pdiblc2   =   5.0000e-06                          pdiblcb   =   0.0000e+00                        
 +  drout     =   1.4570e+00                          pscbe1    =   4.8660e+08                        
 +  pscbe2    =   2.8000e-07                          pvag      =   1.2620e+00                        


 *****parameters for asymmetric and bias-dependent rds model******
 +  rdsw      =   7.9210e+02                          prwg      =   0.0000e+00                        
 +  prwb      =   0.0000e+00                        


 *****impact ionization current model parameters******************
 +  alpha0    =   0.0000e+00                          alpha1    =   0.0000e+00                        
 +  beta0     =   3.0000e+01                        


 *****charge and capacitance model parameters*********************
 +  cgdo      =  '2.0540e-10+dcgdo_p_18'              cgbo      =   0.0000e+00                        
 +  cgso      =  '2.0540e-10+dcgso_p_18'              xpart     =   1.0000e+00                        
 +  cf        =   1.5330e-10                          dlc       =   7.0100e-08                                                                              
 +  cgsl      =   0.0000e+00                          cgdl      =   0.0000e+00                        
 +  ckappa    =   6.0000e-01                                                  
 +  clc       =   1.0000e-07                          cle       =   6.0000e-01                        
 +  dwc       =   0.0000e+00                        
 +  vfbcv     =  -1.0000e+00                          noff      =   1.0000e+00                        
 +  voffcv    =   0.0000e+00                          acde      =   1.0000e+00                        
 +  moin      =   1.5000e+01                        

 *****flicker and thermal noise model parameters******************
 +  noia      =   1.0000e+20                          noib      =   5.0000e+04                        
 +  noic      =  -1.4000e-12                          em        =   4.2000e+07                        
 +  af        =   1.0000e+00                          ef        =   1.0000e+00                        
 +  kf        =   0.0000e+00                        


 *****layout-dependent parasitics model parameters****************
 +  lmin      =   1.8000e-07                          lmax      =   5.0000e-05
 +  wmin      =   2.5000e-07                          wmax      =   1.0000e-04
 +  xl        = '-2.0000e-09+dxl_p_18'                xw        =  '0.0000e+00+dxw_p_18'           


 *****asymmetric source/drain junction diode model parameters*****
 +  js        =   3.0000e-06                          jsw       =   4.2200e-11                        
 +  cj        =  '1.2400e-03+dcj_p_18'                mj        =   3.9500e-01                        
 +  pb        =   7.6200e-01                          cjsw      =  '1.7400e-10+dcjsw_p_18'         
 +  mjsw      =   3.2400e-01                        


 *****temperature dependence parameters***************************
 +  tnom      =   2.5000e+01                          ute       =  -4.4840e-01                        
 +  kt1       =  -2.2940e-01                          kt1l      =  -8.2040e-09                        
 +  kt2       =  -9.4870e-03                          ua1       =   4.5710e-09                        
 +  ub1       =  -6.0260e-18                          uc1       =  -9.8500e-02                        
 +  at        =   1.2030e+04                          prt       =   0.0000e+00                        
 +  xti       =   3.0000e+00                        


 *****dw and dl parameters****************************************
 +  ww        =   1.2360e-14                          lw        =  -2.8730e-16                        
 +  ll        =   6.6350e-15                        
 +  wl        =   0.0000e+00                          wln       =   1.0000e+00                        
 +  wwn       =   1.0000e+00                        
 +  wwl       =   0.0000e+00                                                 
 +  lln       =   1.0000e+00                                                
 +  lwn       =   1.0000e+00                          lwl       =   0.0000e+00                        
 +  llc       =  -1.3100e-14                          lwc       =   0.0000e+00                        
 +  lwlc      =   0.0000e+00                          wlc       =   0.0000e+00                        
 +  wwc       =   0.0000e+00                          wwlc      =   0.0000e+00                        


 *****other parameters********************************************
 +  lvth0     =  '4.4000e-03+dlvth0_p_18'             wvth0     = '-1.4800e-02+dwvth0_p_18'                        
 +  pvth0     =  '3.2000e-03+dpvth0_p_18'             lnlx      =  -1.5840e-08 
 +  wrdsw     =   1.0070e+01                          weta0     =   0.0000e+00                        
 +  wetab     =   0.0000e+00                          wpclm     =   0.0000e+00                        
 +  wua       =   2.6300e-09                          lua       =  -8.2530e-11
 +  pua       =   5.8550e-11                          wub       =   0.0000e+00                        
 +  lub       =   0.0000e+00                          pub       =   0.0000e+00                        
 +  wuc       =   0.0000e+00                          luc       =   0.0000e+00                        
 +  puc       =   0.0000e+00                          wvoff     =  -9.8160e-03                        
 +  lvoff     =  -9.8710e-04                          pvoff     =  -9.8330e-05                        
 +  wa0       =  -4.8070e-02                          la0       =  -2.8100e-01
 +  pa0       =   8.6610e-02                          wags      =  -4.2770e-02                        
 +  lags      =   4.4540e-02                          pags      =  -4.0760e-02                        
 +  wketa     =   0.0000e+00                          lketa     =  -1.2000e-02
 +  pketa     =   0.0000e+00                          wute      =  -2.6820e-01                        
 +  lute      =   0.0000e+00                          pute      =   0.0000e+00                        
 +  wvsat     =  -1.4200e+04                          lvsat     =   0.0000e+00                        
 +  pvsat     = '-4.3400e+02+dpvsat_p_18'             lpdiblc2  =   3.0120e-03
 +  wat       =  -6.4050e+03                          wprt      =   2.2660e+02                        
 +  n         =   1.0000e+00                          php       =   6.6500e-01                        
 +  cta       =   1.0000e-03                          ctp       =   7.5300e-04                        
 +  pta       =   1.5500e-03                          ptp       =   1.2400e-03                        
 +  acm       =   3.0000e+00                          ldif      =   8.0000e-08             
 +  rsh       =   8.0000e+00                          rd        =   0.0000e+00                    
 +  rsc       =   0.0000e+00                          rdc       =   0.0000e+00
 +  hdif      =   2.6000e-07                          rs        =   0.0000e+00

 ******************************************************************************************
 *         3.3v nmos model               *
 ******************************************************************************************
 .model n_33.1 nmos
 +level    = 49                  
 *
 * general parameters
 *
 +lmin     = 3.5e-7              lmax     = 5.0e-5              wmin     = 2.5e-7              
 +wmax     = 1.0e-4              tnom     = 27.0                version  = 3.2                 
 +tox      = '7.00e-09+dtox_n_33'            xj       = 2.5000000e-07       
 +nch      = 1.6999999e+17       lln      = 1.0000000           lwn      = 1.0000000           
 +wln      = 1.0000000           wwn      = 1.0000000           lint     = '0.00+dlint_n_33'                
 +ll       = 1.2142200e-14       lw       = 0.00                lwl      = -2.8856721e-22      
 +wint     = '0.00+dwint_n_33'                wl       = 0.00                ww       = -2.0097143e-16      
 +wwl      = -1.5017800e-21      mobmod   = 1                   binunit  = 2                   
 +xl       = 2.20e-08            xw       = 0.00                dwg      = 3.5527140e-15       
 +dwb      = 6.2000000e-09       
 * diode parameters
 +acm      = 3                   ldif     = 0.00                hdif     = 3.20e-7                
 +rsh      = 8                                     
 *
 * threshold voltage parameters
 *
 +vth0     = '0.5924070+dvth0_n_33'           k1       = 0.7137536           k2       = -2.5826899e-02      
 +k3       = 62.0000000          dvt0     = 4.7501960           dvt1     = 0.6340203           
 +dvt2     = -0.2139230          dvt0w    = 0.2500000           dvt1w    = 5.9500000e+05       
 +dvt2w    = 0.00                nlx      = 1.2508283e-07       w0       = 5.6800000e-06       
 +k3b      = 32.0000000           
 *
 * mobility parameters
 *
 +vsat     = 9.8280000e+04       ua       = -5.8546880e-10      ub       = 1.6518923e-18       
 +uc       = 5.5177280e-11       rdsw     = 5.9591060e+02       prwb     = 5.7154760e-02       
 +prwg     = 2.3068622e-02       wr       = 1.0000000           u0       = 3.4129650e-02       
 +a0       = 1.2752739           keta     = 5.0000000e-03       a1       = 1.0000000e-02       
 +a2       = 0.9900000           ags      = 0.2678509           b0       = 1.0000000e-08       
 +b1       = 9.0000000e-07       
 *
 * subthreshold current parameters
 *
 +voff     = -0.2360862          nfactor  = 1.0000000           cit      = 0.00                
 +cdsc     = 2.3999999e-04       cdscb    = 0.00                cdscd    = 2.3999999e-04       
 +eta0     = 0.2080775           etab     = -1.5000000e-03      dsub     = 0.5210000           
 *
 * rout parameters
 *
 +pclm     = 0.6318000           pdiblc1  = 9.4999000e-04       pdiblc2  = 1.0000000e-03       
 +pdiblcb  = 0.00                drout    = 0.5600000           pscbe1   = 4.2400000e+08       
 +pscbe2   = 1.0000000e-05       pvag     = 0.00                delta    = 1.0000000e-02       
 +alpha0   = 0.00                alpha1   = 0.00                beta0    = 30.0000000          
 *
 * temperature effects parameters
 *
 +kt1      = -0.3166082          kt2      = -4.4608160e-02      at       = 5.0000000e+02       
 +ute      = -1.6006135          ua1      = 4.2028770e-11       ub1      = 3.8000000e-19       
 +uc1      = 2.8000000e-11       kt1l     = 0.0000000           prt      = -2.7126447e+02      
 *	
 * capacitance parameters
 *
 +cj       = 7.673167e-04   	mj       = 0.3299333      	pb       = 0.7131242      	
 +cjsw     = 1.088665e-10   	mjsw     = 0.2036705      	php      = 0.4347057      	
 +cta      = 1.081522e-03   	ctp      = 7.482284e-04   	pta      = 1.822417e-03   	
 +ptp      = 2.008567e-03   	js       = 1.00e-05       	jsw      = 5.2e-11           	
 +cgdo     = '2.7e-10+dcgdo_n_33'        	
 +cgso     = '2.7e-10+dcgso_n_33'        	cgbo     = 1.0e-10       	capmod   = 2              	
 +nqsmod   = 0              	elm      = 5              	xpart    = 1              	
 +cf       = 1.392e-10          	cjgate   = 2.9e-10              tlevc    = 1


 ******************************************************************************************
 *         0.18um 1.8v/3.3v mixedmode triple-well technology, 3.3v nmos model               *
 ******************************************************************************************
 .model n_bpw_33.1 nmos
 +level    = 49                  
 *
 * general parameters
 *
 +lmin     = 3.5e-7              lmax     = 5.0e-5              wmin     = 2.5e-7              
 +wmax     = 1.0e-4              tnom     = 27.0                version  = 3.2                 
 +tox      = '7.00e-09+dtox_n_bpw_33'            xj       = 2.5000000e-07       
 +nch      = 1.6999999e+17       lln      = 1.0000000           lwn      = 1.0000000           
 +wln      = 1.0000000           wwn      = 1.0000000           lint     = '0.00+dlint_n_bpw_33'                
 +ll       = 1.2142200e-14       lw       = 0.00                lwl      = -2.8856721e-22      
 +wint     = '0.00+dwint_n_bpw_33'                wl       = 0.00                ww       = -2.0097143e-16      
 +wwl      = -1.5017800e-21      mobmod   = 1                   binunit  = 2                   
 +xl       = 2.20e-08            xw       = 0.00                dwg      = 3.5527140e-15       
 +dwb      = 6.2000000e-09       
 * diode parameters
 +acm      = 3                   ldif     = 0.00                hdif     = 3.20e-7                
 +rsh      = 8                                     
 *
 * threshold voltage parameters
 *
 +vth0     = '0.5924070+dvth0_n_bpw_33'           k1       = 0.7137536           k2       = -2.5826899e-02      
 +k3       = 62.0000000          dvt0     = 4.7501960           dvt1     = 0.6340203           
 +dvt2     = -0.2139230          dvt0w    = 0.2500000           dvt1w    = 5.9500000e+05       
 +dvt2w    = 0.00                nlx      = 1.2508283e-07       w0       = 5.6800000e-06       
 +k3b      = 32.0000000           
 *
 * mobility parameters
 *
 +vsat     = 9.8280000e+04       ua       = -5.8546880e-10      ub       = 1.6518923e-18       
 +uc       = 5.5177280e-11       rdsw     = 5.9591060e+02       prwb     = 5.7154760e-02       
 +prwg     = 2.3068622e-02       wr       = 1.0000000           u0       = 3.4129650e-02       
 +a0       = 1.2752739           keta     = 5.0000000e-03       a1       = 1.0000000e-02       
 +a2       = 0.9900000           ags      = 0.2678509           b0       = 1.0000000e-08       
 +b1       = 9.0000000e-07       
 *
 * subthreshold current parameters
 *
 +voff     = -0.2360862          nfactor  = 1.0000000           cit      = 0.00                
 +cdsc     = 2.3999999e-04       cdscb    = 0.00                cdscd    = 2.3999999e-04       
 +eta0     = 0.2080775           etab     = -1.5000000e-03      dsub     = 0.5210000           
 *
 * rout parameters
 *
 +pclm     = 0.6318000           pdiblc1  = 9.4999000e-04       pdiblc2  = 1.0000000e-03       
 +pdiblcb  = 0.00                drout    = 0.5600000           pscbe1   = 4.2400000e+08       
 +pscbe2   = 1.0000000e-05       pvag     = 0.00                delta    = 1.0000000e-02       
 +alpha0   = 0.00                alpha1   = 0.00                beta0    = 30.0000000          
 *
 * temperature effects parameters
 *
 +kt1      = -0.3166082          kt2      = -4.4608160e-02      at       = 5.0000000e+02       
 +ute      = -1.6006135          ua1      = 4.2028770e-11       ub1      = 3.8000000e-19       
 +uc1      = 2.8000000e-11       kt1l     = 0.0000000           prt      = -2.7126447e+02      
 *	
 * capacitance parameters
 *
 +cj       = 7.673167e-04   	mj       = 0.3299333      	pb       = 0.7131242      	
 +cjsw     = 1.088665e-10   	mjsw     = 0.2036705      	php      = 0.4347057      	
 +cta      = 1.081522e-03   	ctp      = 7.482284e-04   	pta      = 1.822417e-03   	
 +ptp      = 2.008567e-03   	js       = 1.00e-05       	jsw      = 5.2e-11           	
 +cgdo     = '2.7e-10+dcgdo_n_bpw_33'        	
 +cgso     = '2.7e-10+dcgso_n_bpw_33'        	cgbo     = 1.0e-10       	capmod   = 2              	
 +nqsmod   = 0              	elm      = 5              	xpart    = 1              	
 +cf       = 1.392e-10          	cjgate   = 2.9e-10              tlevc    = 1
            	



 ******************************************************************************************
 *         3.3v pmos model               *
 ******************************************************************************************
 .model p_33.1 pmos
 +level    = 49             	
 +lmin     = 3.5e-7         	lmax     = 5.0e-5         	wmin     = 2.5e-7         	
 +wmax     = 1.0e-4        	tnom     = 27.0           	version  = 3.2            	
 +tox      = '7.00000e-09+dtox_p_33'    	xj       = 1.8000000e-07  	nch      = 4.3096250e+17  	
 +lln      = 1.4787377      	lwn      = 1.0000000      	wln      = 1.0000000      	
 +wwn      = 1.6332974      	lint     = '2.2396316e-08+dlint_p_33'  	ll       = 3.3436880e-18  	
 +lw       = 0.00           	lwl      = -1.4344100e-24 	wint     = '3.3613110e-08+dwint_p_33'  	
 +wl       = 0.00           	ww       = -7.2735800e-19 	wwl      = 9.7470860e-26  	
 +mobmod   = 1              	xl       = -1.0000e-08          xw       = 0                	
 +dwg      = -1.4371156e-08 	dwb      = 5.9839220e-09  	
 +vth0     = '-0.7204355+dvth0_p_33'     	k1       = 0.7667419      	k2       = 5.4286610e-02  	
 +k3       = 2.0892601      	dvt0     = 7.3947320      	dvt1     = 0.9634880      	
 +dvt2     = 7.8053260e-03  	dvt0w    = 1.7969700      	dvt1w    = 2.8762723e+06  	
 +dvt2w    = 0.2026245      	nlx      = 0.00           	w0       = 2.2247300e-07  	
 +k3b      = 1.0028400      	         	
 +vsat     = 1.0007731e+05  	ua       = -3.9782800e-10 	ub       = 1.6947495e-18  	
 +uc       = -3.6494700e-11 	rdsw     = 6.2701920e+02  	prwb     = -0.7725255     	
 +prwg     = 3.3490300e-02  	wr       = 0.9913232      	u0       = 8.0758510e-03  	
 +a0       = 1.0736154      	keta     = -1.0346900e-02 	a1       = 0.01      	
 +a2       = 0.9212255      	ags      = 0.2138427      	b0       = 4.3581280e-07  	
 +b1       = 1.7378807e-06  	
 +voff     = -0.2239050     	nfactor  = 0.9964148      	cit      = 5.3336740e-04  	
 +cdsc     = 3.2656700e-03  	cdscb    = 2.4630399e-03  	cdscd    = 0.00           	
 +eta0     = 5.4210600e-02  	etab     = -1.8931806e-02 	dsub     = 0.4594282      	
 +pclm     = 0.6164396      	pdiblc1  = 1.2236120e-02  	pdiblc2  = 3.5433970e-04  	
 +pdiblcb  = 0.2477877      	drout    = 0.2401412      	pscbe1   = 4.6427620e+08  	
 +pscbe2   = 2.8700000e-05  	pvag     = -0.2307000     	delta    = 1.0000000e-02  	
 +alpha0   = 0.00           	beta0    = 30.0000000     	
 +kt1      = -0.3345865     	kt2      = -5.7475180e-02 	at       = 4.9500000e+04  	
 +ute      = -1.2277215     	ua1      = 1.4019034e-09  	ub1      = -3.4171990e-18 	
 +uc1      = -1.3930956e-10 	kt1l     = 1.0000003e-08  	prt      = 0.00           	
 +cj       = 1.299812e-03   	mj       = 0.4096944      	pb       = 0.761753       	
 +cjsw     = 2.243239e-10   	mjsw     = 0.474468       	php      = 0.9296629      	
 +cta      = 9.968635e-04   	ctp      = 7.21932e-04    	pta      = 1.503527e-03   	
 +ptp      = 1.215858e-03   	js       = 9.00e-05       	jsw      = 4.90e-12     	
 +cgdo     = '2.6e-10+dcgdo_p_33'        	
 +cgso     = '2.6e-10+dcgso_p_33'        	cgbo     = 1e-10             	capmod   = 2              	
 +nqsmod   = 0              	elm      = 5              	xpart    = 1              	
 +cf       = 1.392e-10       	tlevc    = 1
 +acm      = 3                 hdif     = 3.2e-7                rsh     = 8               	 
            	


 ******************************************************************************************
 *         1.8v low vt nmos model     *
 ******************************************************************************************
 .model n_lv_18.1 nmos
 +level    = 49             	
 +lmin     = 2.5e-7         	lmax     = 5.0e-5         	wmin     = 2.5e-7         	
 +wmax     = 1.0e-4         	tnom     = 27.0           	version  = 3.2            	
 +tox      = '4.20000e-09+dtox_n_lv_18'    	xj       = 1.6000000e-07  	nch      = 4.6371000e+17  	
 +lln      = 2.0000000      	lwn      = 1.0000000      	wln      = 1.0000000      	
 +wwn      = 1.0000000      	lint     = '1.0000000e-08+dtox_n_lv_18'  	ll       = -2.5800000e-22 	
 +lw       = 0.00           	lwl      = 0.00           	wint     = '2.0000000e-08+dtox_n_lv_18'  	
 +wl       = 0.00           	ww       = 0.00           	wwl      = 0.00           	
 +mobmod   = 2              	binunit  = 2              	xl       = 0              	
 +xw       = 0              	
 +dwg      = 2.5000000e-09  	dwb      = 1.2441700e-09  	
 +acm      = 3              	hdif     = 2.6e-07             	rsh      = 8              	
 +vth0     = '1.6460000e-02+dtox_n_lv_18'  	k1       = 0.3122200      	k2       = -4.3434400e-02 	
 +k3       = -15.4245000    	dvt0     = 1.9600000      	dvt1     = 0.2703380      	
 +dvt2     = 7.0000000e-02  	dvt0w    = 0.4113980      	dvt1w    = 1.6626000e+06  	
 +dvt2w    = -4.4234600e-02 	nlx      = 8.3200000e-07  	w0       = 1.0000000e-06  	
 +k3b      = -0.2101380     	           	
 +vsat     = 9.20e+04    	pvsat    = 1.9999999e-09  	ua       = 5.2358400e-10  	
 +wua      = 1.0000000e-16  	pua      = -7.5000000e-23 	ub       = 1.4080000e-18  	
 +wub      = -3.0000001e-25 	pub      = 8.0000000e-32  	uc       = -1.0246000e-10 	
 +rdsw     = 96.7580000     	prwb     = -0.2000000     	prwg     = 5.0000000e-02  	
 +wr       = 1.0000000      	u0       = 4.9234500e-02  	wu0      = 2.4000000e-09  	
 +pu0      = 2.0000000e-16  	a0       = 1.0000000      	keta     = 4.2062700e-03  	
 +a1       = 0.00           	a2       = 1.0000000      	ags      = 0.6300000      	
 +b0       = 0.00           	b1       = 0.00           	
 +voff     = -0.2517590     	nfactor  = 1.0000000      	cit      = -4.5359940e-03 	
 +cdsc     = 1.2000000e-03  	cdscb    = 0.00           	cdscd    = 5e-4           	
 +eta0     = 5.5334000e-02  	etab     = -2.3552900e-02 	dsub     = 0.5600000      	
 +pclm     = 2.8151700      	pdiblc1  = 0.2000000      	pdiblc2  = 8.0000000e-02  	
 +pdiblcb  = 0.2777778      	drout    = 1.0000000      	pscbe1   = 6.6815310e+08  	
 +pscbe2   = 1.0000000e-10  	pvag     = 0.5000000      	delta    = 1.0000000e-02  	
 +alpha0   = 0.00           	beta0    = 30.0000000     	
 +kt1      = -0.2999444     	kt2      = 1.5900001e-02  	at       = 3.3000000e+04  	
 +ute      = -1.6873263     	ua1      = -1.3554663e-09 	ub1      = 8.7998690e-20  	
 +uc1      = 3.4078270e-11  	kt1l     = 0.00           	prt      = -1.0000000e+02 	
 +cj       = 0.00099        	mj       = 0.5            	pb       = 0.762          	
 +cjsw     = 1.5e-10        	mjsw     = 0.257          	php      = 0.639          	
 +cta      = 0.000902       	ctp      = 0.000718       	pta      = 0.000872       	
 +ptp      = 0.00385        	js       = 1.00e-04       	jsw      = 0.00           	
 +cjgate    = 2.4e-10        	        	
 +cgdo     = '2.0e-10+dcgdo_n_lv_18'        	
 +cgso     = '2.0e-10+dcgso_n_lv_18'        	cgbo     = 0.0          	capmod   = 2              	
 +nqsmod   = 0              	elm      = 5              	xpart    = 1              	
 +cf       = 1.53e-10       	
 +dwc      = 2e-08          	tlevc    = 1 



 ******************************************************************************************
 *         1.8v low vt pmos model     *
 ******************************************************************************************            	

 .model p_lv_18.1 pmos
 +level    = 49             	
 +lmin     = 2.5e-7         	lmax     = 5.0e-5        	wmin     = 2.5e-7         	
 +wmax     = 1.0e-4         	tnom     = 27.0           	version  = 3.2            	
 +tox      = '4.20000e-09+dtox_p_lv_18'    	xj       = 1.8000000e-07  	nch      = 2.6699999e+17  	
 +lln      = 0.2000000      	lwn      = 1.0000000      	wln      = 0.7966000      	
 +wwn      = 1.7867000      	lint     = '0.00+dlint_p_lv_18'           	ll       = 8.9200000e-10  	
 +lw       = -8.0000000e-14 	lwl      = 3.7900000e-15  	wint     = '-4.2700000e-08+dwint_n_zero_18' 	
 +wl       = 5.6500000e-14  	ww       = 5.7000000e-24  	wwl      = 1.8000000e-25  	
 +mobmod   = 1              	binunit  = 2              	xl       = 0              	
 +xw       = 0              	
 +dwg      = -1.0600000e-08 	dwb      = -1.0100000e-09 	
 +acm      = 3              	hdif     = 2.6e-07             	rsh      = 8             	
 +vth0     = '-0.2253000+dvth0_n_zero_18'     	k1       = 0.4604000      	k2       = -1.0000000e-02 	
 +k3       = -6.3916000     	dvt0     = 1.0400000e-03  	dvt1     = 2.9700000e-02  	
 +dvt2     = -12.2436000    	dvt0w    = 0.00           	dvt1w    = 0.00           	
 +dvt2w    = 0.00           	nlx      = 0.00           	w0       = 5.5000000e-07  	
 +k3b      = 5.2034000      	          	
 +vsat     = 1.4500000e+05  	ua       = 1.8500000e-09  	ub       = -4.0200000e-19 	
 +uc       = -1.1800000e-10 	rdsw     = 1.2024300e+02  	prwb     = -2.0000000     	
[...]
   31.62278      20.5019   
   32.35937      20.5019   
   33.11311      20.5019   
   33.88442      20.5019   
   34.67369      20.5019   
   35.48134      20.5019   
   36.30781      20.5019   
   37.15352      20.5019   
   38.01894      20.5019   
   38.90451      20.5019   
   39.81072      20.5019   
   40.73803      20.5019   
   41.68694      20.5019   
   42.65795      20.5019   
   43.65158      20.5019   
   44.66836      20.5019   
   45.70882      20.5019   
   46.77351      20.5019   
   47.86301      20.5019   
   48.97788      20.5019   
   50.11872      20.5019   
   51.28614      20.5019   
   52.48075      20.5019   
   53.70318      20.5019   
   54.95409      20.5019   
   56.23413      20.5019   
   57.54399      20.5019   
   58.88437      20.5019   
   60.25596      20.5019   
   61.65950      20.5019   
   63.09573      20.5019   
   64.56542      20.5019   
   66.06934      20.5019   
   67.60830      20.5019   
   69.18310      20.5019   
   70.79458      20.5019   
   72.44360      20.5019   
   74.13102      20.5019   
   75.85776      20.5019   
   77.62471      20.5019   
   79.43282      20.5019   
   81.28305      20.5019   
   83.17638      20.5019   
   85.11380      20.5019   
   87.09636      20.5019   
   89.12509      20.5019   
   91.20108      20.5019   
   93.32543      20.5019   
   95.49926      20.5019   
   97.72372      20.5019   
  100.00000      20.5019   
  102.32930      20.5019   
  104.71285      20.5019   
  107.15193      20.5019   
  109.64782      20.5019   
  112.20185      20.5019   
  114.81536      20.5019   
  117.48976      20.5019   
  120.22644      20.5019   
  123.02688      20.5019   
  125.89254      20.5019   
  128.82496      20.5019   
  131.82567      20.5019   
  134.89629      20.5019   
  138.03843      20.5019   
  141.25375      20.5019   
  144.54398      20.5019   
  147.91084      20.5019   
  151.35612      20.5019   
  154.88166      20.5019   
  158.48932      20.5019   
  162.18101      20.5019   
  165.95869      20.5019   
  169.82437      20.5019   
  173.78008      20.5019   
  177.82794      20.5019   
  181.97009      20.5019   
  186.20871      20.5019   
  190.54607      20.5019   
  194.98446      20.5019   
  199.52623      20.5019   
  204.17379      20.5019   
  208.92961      20.5019   
  213.79621      20.5019   
  218.77616      20.5019   
  223.87211      20.5019   
  229.08677      20.5019   
  234.42288      20.5019   
  239.88329      20.5019   
  245.47089      20.5019   
  251.18864      20.5019   
  257.03958      20.5019   
  263.02680      20.5019   
  269.15348      20.5019   
  275.42287      20.5019   
  281.83829      20.5019   
  288.40315      20.5019   
  295.12092      20.5019   
  301.99517      20.5019   
  309.02954      20.5019   
  316.22777      20.5019   
  323.59366      20.5019   
  331.13112      20.5019   
  338.84416      20.5019   
  346.73685      20.5019   
  354.81339      20.5019   
  363.07805      20.5019   
  371.53523      20.5019   
  380.18940      20.5019   
  389.04514      20.5019   
  398.10717      20.5019   
  407.38028      20.5019   
  416.86938      20.5019   
  426.57952      20.5019   
  436.51583      20.5019   
  446.68359      20.5019   
  457.08819      20.5019   
  467.73514      20.5019   
  478.63009      20.5019   
  489.77882      20.5019   
  501.18723      20.5019   
  512.86138      20.5019   
  524.80746      20.5019   
  537.03180      20.5019   
  549.54087      20.5019   
  562.34133      20.5019   
  575.43994      20.5019   
  588.84366      20.5019   
  602.55959      20.5019   
  616.59500      20.5019   
  630.95734      20.5019   
  645.65423      20.5019   
  660.69345      20.5019   
  676.08298      20.5019   
  691.83097      20.5019   
  707.94578      20.5019   
  724.43596      20.5019   
  741.31024      20.5019   
  758.57758      20.5019   
  776.24712      20.5019   
  794.32823      20.5019   
  812.83052      20.5019   
  831.76377      20.5019   
  851.13804      20.5019   
  870.96359      20.5019   
  891.25094      20.5019   
  912.01084      20.5019   
  933.25430      20.5019   
  954.99259      20.5019   
  977.23722      20.5019   
    1.00000k     20.5019   
    1.02329k     20.5019   
    1.04713k     20.5019   
    1.07152k     20.5019   
    1.09648k     20.5019   
    1.12202k     20.5019   
    1.14815k     20.5019   
    1.17490k     20.5019   
    1.20226k     20.5019   
    1.23027k     20.5019   
    1.25893k     20.5019   
    1.28825k     20.5019   
    1.31826k     20.5019   
    1.34896k     20.5019   
    1.38038k     20.5019   
    1.41254k     20.5019   
    1.44544k     20.5019   
    1.47911k     20.5019   
    1.51356k     20.5019   
    1.54882k     20.5019   
    1.58489k     20.5019   
    1.62181k     20.5019   
    1.65959k     20.5019   
    1.69824k     20.5019   
    1.73780k     20.5019   
    1.77828k     20.5019   
    1.81970k     20.5019   
    1.86209k     20.5019   
    1.90546k     20.5019   
    1.94984k     20.5019   
    1.99526k     20.5019   
    2.04174k     20.5019   
    2.08930k     20.5019   
    2.13796k     20.5019   
    2.18776k     20.5019   
    2.23872k     20.5019   
    2.29087k     20.5019   
    2.34423k     20.5019   
    2.39883k     20.5019   
    2.45471k     20.5019   
    2.51189k     20.5019   
    2.57040k     20.5019   
    2.63027k     20.5019   
    2.69153k     20.5019   
    2.75423k     20.5019   
    2.81838k     20.5019   
    2.88403k     20.5019   
    2.95121k     20.5019   
    3.01995k     20.5019   
    3.09030k     20.5019   
    3.16228k     20.5019   
    3.23594k     20.5019   
    3.31131k     20.5019   
    3.38844k     20.5019   
    3.46737k     20.5019   
    3.54813k     20.5019   
    3.63078k     20.5019   
    3.71535k     20.5019   
    3.80189k     20.5019   
    3.89045k     20.5019   
    3.98107k     20.5019   
    4.07380k     20.5019   
    4.16869k     20.5019   
    4.26580k     20.5019   
    4.36516k     20.5019   
    4.46684k     20.5019   
    4.57088k     20.5019   
    4.67735k     20.5019   
    4.78630k     20.5019   
    4.89779k     20.5019   
    5.01187k     20.5019   
    5.12861k     20.5019   
    5.24807k     20.5019   
    5.37032k     20.5019   
    5.49541k     20.5019   
    5.62341k     20.5019   
    5.75440k     20.5019   
    5.88844k     20.5019   
    6.02560k     20.5019   
    6.16595k     20.5019   
    6.30957k     20.5019   
    6.45654k     20.5019   
    6.60693k     20.5019   
    6.76083k     20.5019   
    6.91831k     20.5019   
    7.07946k     20.5019   
    7.24436k     20.5019   
    7.41310k     20.5019   
    7.58578k     20.5019   
    7.76247k     20.5019   
    7.94328k     20.5019   
    8.12831k     20.5019   
    8.31764k     20.5019   
    8.51138k     20.5019   
    8.70964k     20.5019   
    8.91251k     20.5019   
    9.12011k     20.5019   
    9.33254k     20.5019   
    9.54993k     20.5019   
    9.77237k     20.5019   
   10.00000k     20.5019   
   10.23293k     20.5019   
   10.47129k     20.5019   
   10.71519k     20.5019   
   10.96478k     20.5019   
   11.22018k     20.5019   
   11.48154k     20.5019   
   11.74898k     20.5019   
   12.02264k     20.5019   
   12.30269k     20.5019   
   12.58925k     20.5019   
   12.88250k     20.5019   
   13.18257k     20.5019   
   13.48963k     20.5019   
   13.80384k     20.5019   
   14.12538k     20.5019   
   14.45440k     20.5019   
   14.79108k     20.5019   
   15.13561k     20.5019   
   15.48817k     20.5019   
   15.84893k     20.5019   
   16.21810k     20.5019   
   16.59587k     20.5019   
   16.98244k     20.5019   
   17.37801k     20.5019   
   17.78279k     20.5019   
   18.19701k     20.5019   
   18.62087k     20.5019   
   19.05461k     20.5019   
   19.49845k     20.5019   
   19.95262k     20.5019   
   20.41738k     20.5019   
   20.89296k     20.5019   
   21.37962k     20.5019   
   21.87762k     20.5019   
   22.38721k     20.5019   
   22.90868k     20.5019   
   23.44229k     20.5019   
   23.98833k     20.5019   
   24.54709k     20.5019   
   25.11886k     20.5019   
   25.70396k     20.5019   
   26.30268k     20.5019   
   26.91535k     20.5019   
   27.54229k     20.5019   
   28.18383k     20.5018   
   28.84032k     20.5018   
   29.51209k     20.5018   
   30.19952k     20.5018   
   30.90295k     20.5018   
   31.62278k     20.5018   
   32.35937k     20.5018   
   33.11311k     20.5018   
   33.88442k     20.5018   
   34.67369k     20.5018   
   35.48134k     20.5018   
   36.30781k     20.5018   
   37.15352k     20.5018   
   38.01894k     20.5018   
   38.90451k     20.5018   
   39.81072k     20.5018   
   40.73803k     20.5018   
   41.68694k     20.5018   
   42.65795k     20.5018   
   43.65158k     20.5018   
   44.66836k     20.5018   
   45.70882k     20.5018   
   46.77351k     20.5018   
   47.86301k     20.5018   
   48.97788k     20.5018   
   50.11872k     20.5018   
   51.28614k     20.5018   
   52.48075k     20.5018   
   53.70318k     20.5018   
   54.95409k     20.5018   
   56.23413k     20.5018   
   57.54399k     20.5018   
   58.88437k     20.5018   
   60.25596k     20.5018   
   61.65950k     20.5018   
   63.09573k     20.5018   
   64.56542k     20.5018   
   66.06934k     20.5018   
   67.60830k     20.5018   
   69.18310k     20.5018   
   70.79458k     20.5018   
   72.44360k     20.5018   
   74.13102k     20.5018   
   75.85776k     20.5018   
   77.62471k     20.5018   
   79.43282k     20.5018   
   81.28305k     20.5018   
   83.17638k     20.5017   
   85.11380k     20.5017   
   87.09636k     20.5017   
   89.12509k     20.5017   
   91.20108k     20.5017   
   93.32543k     20.5017   
   95.49926k     20.5017   
   97.72372k     20.5017   
  100.00000k     20.5017   
  102.32930k     20.5017   
  104.71285k     20.5017   
  107.15193k     20.5017   
  109.64782k     20.5017   
  112.20185k     20.5017   
  114.81536k     20.5016   
  117.48976k     20.5016   
  120.22644k     20.5016   
  123.02688k     20.5016   
  125.89254k     20.5016   
  128.82496k     20.5016   
  131.82567k     20.5016   
  134.89629k     20.5016   
  138.03843k     20.5016   
  141.25375k     20.5015   
  144.54398k     20.5015   
  147.91084k     20.5015   
  151.35612k     20.5015   
  154.88166k     20.5015   
  158.48932k     20.5015   
  162.18101k     20.5014   
  165.95869k     20.5014   
  169.82437k     20.5014   
  173.78008k     20.5014   
  177.82794k     20.5013   
  181.97009k     20.5013   
  186.20871k     20.5013   
  190.54607k     20.5013   
  194.98446k     20.5012   
  199.52623k     20.5012   
  204.17379k     20.5012   
  208.92961k     20.5011   
  213.79621k     20.5011   
  218.77616k     20.5011   
  223.87211k     20.5010   
  229.08677k     20.5010   
  234.42288k     20.5010   
  239.88329k     20.5009   
  245.47089k     20.5009   
  251.18864k     20.5008   
  257.03958k     20.5008   
  263.02680k     20.5007   
  269.15348k     20.5007   
  275.42287k     20.5006   
  281.83829k     20.5006   
  288.40315k     20.5005   
  295.12092k     20.5004   
  301.99517k     20.5004   
  309.02954k     20.5003   
  316.22777k     20.5002   
  323.59366k     20.5001   
  331.13112k     20.5001   
  338.84416k     20.5000   
  346.73685k     20.4999   
  354.81339k     20.4998   
  363.07805k     20.4997   
  371.53523k     20.4996   
  380.18940k     20.4995   
  389.04514k     20.4994   
  398.10717k     20.4993   
  407.38028k     20.4991   
  416.86938k     20.4990   
  426.57952k     20.4989   
  436.51583k     20.4987   
  446.68359k     20.4986   
  457.08819k     20.4984   
  467.73514k     20.4983   
  478.63009k     20.4981   
  489.77882k     20.4979   
  501.18723k     20.4977   
  512.86138k     20.4976   
  524.80746k     20.4973   
  537.03180k     20.4971   
  549.54087k     20.4969   
  562.34133k     20.4967   
  575.43994k     20.4964   
  588.84366k     20.4962   
  602.55959k     20.4959   
  616.59500k     20.4956   
  630.95734k     20.4953   
  645.65423k     20.4950   
  660.69345k     20.4947   
  676.08298k     20.4944   
  691.83097k     20.4940   
  707.94578k     20.4937   
  724.43596k     20.4933   
  741.31024k     20.4929   
  758.57758k     20.4924   
  776.24712k     20.4920   
  794.32823k     20.4915   
  812.83052k     20.4910   
  831.76377k     20.4905   
  851.13804k     20.4900   
  870.96359k     20.4894   
  891.25094k     20.4889   
  912.01084k     20.4882   
  933.25430k     20.4876   
  954.99259k     20.4869   
  977.23722k     20.4862   
    1.00000x     20.4855   
    1.02329x     20.4847   
    1.04713x     20.4839   
    1.07152x     20.4831   
    1.09648x     20.4822   
    1.12202x     20.4813   
    1.14815x     20.4803   
    1.17490x     20.4793   
    1.20226x     20.4782   
    1.23027x     20.4771   
    1.25893x     20.4759   
    1.28825x     20.4747   
    1.31826x     20.4735   
    1.34896x     20.4721   
    1.38038x     20.4707   
    1.41254x     20.4693   
    1.44544x     20.4677   
    1.47911x     20.4661   
    1.51356x     20.4644   
    1.54882x     20.4627   
    1.58489x     20.4609   
    1.62181x     20.4589   
    1.65959x     20.4569   
    1.69824x     20.4548   
    1.73780x     20.4526   
    1.77828x     20.4503   
    1.81970x     20.4479   
    1.86209x     20.4454   
    1.90546x     20.4427   
    1.94984x     20.4399   
    1.99526x     20.4371   
    2.04174x     20.4340   
    2.08930x     20.4308   
    2.13796x     20.4275   
    2.18776x     20.4241   
    2.23872x     20.4204   
    2.29087x     20.4166   
    2.34423x     20.4127   
    2.39883x     20.4085   
    2.45471x     20.4041   
    2.51189x     20.3996   
    2.57040x     20.3948   
    2.63027x     20.3898   
    2.69153x     20.3846   
    2.75423x     20.3792   
    2.81838x     20.3735   
    2.88403x     20.3675   
    2.95121x     20.3613   
    3.01995x     20.3548   
    3.09030x     20.3480   
    3.16228x     20.3409   
    3.23594x     20.3334   
    3.31131x     20.3256   
    3.38844x     20.3175   
    3.46737x     20.3090   
    3.54813x     20.3001   
    3.63078x     20.2909   
    3.71535x     20.2812   
    3.80189x     20.2710   
    3.89045x     20.2605   
    3.98107x     20.2494   
    4.07380x     20.2379   
    4.16869x     20.2258   
    4.26580x     20.2132   
    4.36516x     20.2001   
    4.46684x     20.1864   
    4.57088x     20.1720   
    4.67735x     20.1571   
    4.78630x     20.1415   
    4.89779x     20.1252   
    5.01187x     20.1083   
    5.12861x     20.0906   
    5.24807x     20.0721   
    5.37032x     20.0529   
    5.49541x     20.0328   
    5.62341x     20.0119   
    5.75440x     19.9902   
    5.88844x     19.9675   
    6.02560x     19.9438   
    6.16595x     19.9192   
    6.30957x     19.8936   
    6.45654x     19.8669   
    6.60693x     19.8392   
    6.76083x     19.8103   
    6.91831x     19.7803   
    7.07946x     19.7491   
    7.24436x     19.7167   
    7.41310x     19.6829   
    7.58578x     19.6479   
    7.76247x     19.6115   
    7.94328x     19.5738   
    8.12831x     19.5346   
    8.31764x     19.4939   
    8.51138x     19.4517   
    8.70964x     19.4080   
    8.91251x     19.3627   
    9.12011x     19.3157   
    9.33254x     19.2671   
    9.54993x     19.2167   
    9.77237x     19.1646   
   10.00000x     19.1107   
   10.23293x     19.0550   
   10.47129x     18.9974   
   10.71519x     18.9379   
   10.96478x     18.8765   
   11.22018x     18.8131   
   11.48154x     18.7477   
   11.74898x     18.6802   
   12.02264x     18.6107   
   12.30269x     18.5390   
   12.58925x     18.4653   
   12.88250x     18.3894   
   13.18257x     18.3113   
   13.48963x     18.2310   
   13.80384x     18.1485   
   14.12538x     18.0637   
   14.45440x     17.9767   
   14.79108x     17.8874   
   15.13561x     17.7959   
   15.48817x     17.7021   
   15.84893x     17.6060   
   16.21810x     17.5076   
   16.59587x     17.4069   
   16.98244x     17.3039   
   17.37801x     17.1986   
   17.78279x     17.0910   
   18.19701x     16.9811   
   18.62087x     16.8690   
   19.05461x     16.7547   
   19.49845x     16.6380   
   19.95262x     16.5192   
   20.41738x     16.3982   
   20.89296x     16.2750   
   21.37962x     16.1497   
   21.87762x     16.0222   
   22.38721x     15.8926   
   22.90868x     15.7610   
   23.44229x     15.6273   
   23.98833x     15.4916   
   24.54709x     15.3539   
   25.11886x     15.2143   
   25.70396x     15.0728   
   26.30268x     14.9294   
   26.91535x     14.7842   
   27.54229x     14.6373   
   28.18383x     14.4885   
   28.84032x     14.3381   
   29.51209x     14.1860   
   30.19952x     14.0323   
   30.90295x     13.8770   
   31.62278x     13.7202   
   32.35937x     13.5618   
   33.11311x     13.4020   
   33.88442x     13.2408   
   34.67369x     13.0782   
   35.48134x     12.9143   
   36.30781x     12.7491   
   37.15352x     12.5827   
   38.01894x     12.4150   
   38.90451x     12.2462   
   39.81072x     12.0762   
   40.73803x     11.9052   
   41.68694x     11.7331   
   42.65795x     11.5600   
   43.65158x     11.3859   
   44.66836x     11.2109   
   45.70882x     11.0350   
   46.77351x     10.8582   
   47.86301x     10.6806   
   48.97788x     10.5022   
   50.11872x     10.3230   
   51.28614x     10.1431   
   52.48075x      9.9625   
   53.70318x      9.7812   
   54.95409x      9.5993   
   56.23413x      9.4168   
   57.54399x      9.2337   
   58.88437x      9.0501   
   60.25596x      8.8659   
   61.65950x      8.6813   
   63.09573x      8.4962   
   64.56542x      8.3106   
   66.06934x      8.1247   
   67.60830x      7.9383   
   69.18310x      7.7516   
   70.79458x      7.5646   
   72.44360x      7.3772   
   74.13102x      7.1896   
   75.85776x      7.0017   
   77.62471x      6.8135   
   79.43282x      6.6251   
   81.28305x      6.4366   
   83.17638x      6.2478   
   85.11380x      6.0589   
   87.09636x      5.8699   
   89.12509x      5.6807   
   91.20108x      5.4915   
   93.32543x      5.3022   
   95.49926x      5.1128   
   97.72372x      4.9234   
  100.00000x      4.7340   
y

          ***** job concluded
1****** HSPICE -- B-2008.09-SP1 32-BIT (Nov 24 2008) linux ******               
 ******  
 *3.1

  ******  job statistics summary tnom=  25.000 temp=  25.000 *****

  ******  HSPICE Threads Information  ******
  Command Line Threads Count:                      0
  Available CPU Count:                             8
  Actual Model Evaluation(Load) Threads Count:     1
  Actual Solver Threads Count:                     1


  ******  Circuit Statistics  ******
  # nodes       =      14  # elements   =       9
  # resistors   =       2  # capacitors =       0  # inductors   =       0
  # mutual_inds =       0  # vccs       =       0  # vcvs        =       0
  # cccs        =       0  # ccvs       =       0  # volt_srcs   =       4
  # curr_srcs   =       0  # diodes     =       0  # bjts        =       0
  # jfets       =       0  # mosfets    =       3  # U elements  =       0
  # T elements  =       0  # W elements =       0  # B elements  =       0
  # S elements  =       0  # P elements =       0  # va device   =       0


  ******  Runtime Statistics (seconds)  ******

  analysis           time    # points   tot. iter  conv.iter
  op point           0.02           1           7
  ac analysis        0.00         801         801
  readin             0.02
  errchk             0.00
  setup              0.00
  output             0.00


           total memory used          208  kbytes
           total cpu time            0.03 seconds
           total elapsed time        0.03 seconds
           job started at     16:55:14 05/05/2016
           job ended   at     16:55:15 05/05/2016


 Init: hspice initialization file: /usr/cad/synopsys/hspice/cur/hspice/hspice.ini
 lic: Release hspice token(s) 
