Using: /usr/bin/time -p /usr/cad/synopsys/hspice/cur/hspice/linux/hspice 1c.sp
 ****** HSPICE -- B-2008.09-SP1 32-BIT (Nov 24 2008) linux ******               
  Copyright (C) 2008 Synopsys, Inc. All Rights Reserved.                        
  Unpublished-rights reserved under US copyright laws.
  This program is protected by law and is subject to the 
  terms and conditions of the license agreement from Synopsys.
  Use of this program is your acceptance to be bound by the 
  license agreement. HSPICE is the trademark of Synopsys, Inc.
  Input File: 1c.sp                                                             
 lic:  
 lic: FLEXlm: v8.5b 
 lic: USER:   u102061112           HOSTNAME: ws36 
 lic: HOSTID: e41f1366b708         PID:      9468 
 lic: Using FLEXlm license file: 
 lic: 26585@lsnctu 
 lic: Checkout 1 hspice 
 lic: License/Maintenance for hspice will expire on 14-may-2016/2015.06 
 lic: FLOATING license(s) on SERVER lsnctu 
 lic:   
 Init: read install configuration file: /usr/cad/synopsys/hspice/cur/hspice/meta.cfg
 Init: hspice initialization file: /usr/cad/synopsys/hspice/cur/hspice/hspice.ini
 .option runlvl
 .option post=1 acct captab acout=0

 m3 vp vb gnd gnd n_18 w=10u l=0.5u m=1
 m2 vout+ vin- vp gnd n_18 w=84u l=2.8u m=1
 m1 vout- vin+ vp gnd n_18 w=84u l=2.8u m=1


 r1 vdd vout- 100k *$[rp]
 r0 vdd vout+ 100k *$[rp]

 ******source******

 vdd vdd 0 dc=1.8
 vcm vcm 0 dc=0.9
 vin+ vin+ vcm ac 0.5 0
 vin- vin- vcm ac 0.5 180
 vb vb 0 dc=0.49

 ******analysis******
 .op
 .ac dec 100 10m 100meg sweep vcm 0.3 1.5 0.01
 .probe vdb(vout+,vout-)
 .print vdb(vout+,vout-)


 .end
 

 
      
1****** HSPICE -- B-2008.09-SP1 32-BIT (Nov 24 2008) linux ******               
 ******  
 *3.1

  ******  operating point information tnom=  25.000 temp=  25.000 *****
 ***** operating point status is all       simulation time is     0.     
    node    =voltage      node    =voltage      node    =voltage

 +0:vb      = 490.0000m 0:vcm     = 900.0000m 0:vdd     =   1.8000 
 +0:vin+    = 900.0000m 0:vin-    = 900.0000m 0:vout+   = 797.2159m
 +0:vout-   = 797.2159m 0:vp      = 469.7493m


 maximum nodal capacitance=   1.816E-12         on node     0:vp              

    nodal  capacitance table 

    node    =    cap      node    =    cap      node    =    cap

 +0:vb      =  33.3793f 0:vcm     =   0.      0:vdd     =   0.     
 +0:vin+    =   1.0010p 0:vin-    =   1.0010p 0:vout+   = 109.8035f
 +0:vout-   = 109.8035f 0:vp      =   1.8163p

 

 ****  voltage sources

 subckt                                                         
 element  0:vdd      0:vcm      0:vin+     0:vin-     0:vb      
  volts      1.8000   900.0000m    0.         0.       490.0000m
  current  -20.0557u    0.         0.         0.         0.     
  power     36.1002u    0.         0.         0.         0.     

     total voltage source power dissipation=   36.1002u       watts



 **** resistors

 subckt                        
 element  0:r1       0:r0      
  r value  100.0000k  100.0000k
  v drop     1.0028     1.0028 
  current   10.0278u   10.0278u
  power     10.0558u   10.0558u



 **** mosfets


 subckt                                   
 element  0:m3       0:m2       0:m1      
 model    0:n_18.1   0:n_18.1   0:n_18.1  
 region     Saturati   Saturati   Saturati
  id        20.0557u   10.0278u   10.0278u
  ibs     -3.245e-21   -2.8168f   -2.8168f
  ibd     -365.4617a   -4.7805f   -4.7805f
  vgs      490.0000m  430.2507m  430.2507m
  vds      469.7493m  327.4665m  327.4665m
  vbs        0.      -469.7493m -469.7493m
  vth      443.4527m  426.6507m  426.6507m
  vdsat     92.6188m   63.8755m   63.8755m
  vod       46.5473m    3.6000m    3.6000m
  beta       6.4796m    9.1525m    9.1525m
  gam eff  507.4460m  519.2189m  519.2189m
  gm       352.0582u  220.3366u  220.3366u
  gds        5.8126u    1.9649u    1.9649u
  gmb       68.7080u   36.5808u   36.5808u
  cdtot     13.9076f  109.8035f  109.8035f
  cgtot     33.3793f    1.0010p    1.0010p
  cstot     40.2628f  901.1976f  901.1976f
  cbtot     29.4673f  486.0529f  486.0529f
  cgs       26.2017f  760.2138f  760.2138f
  cgd        3.6523f   29.2857f   29.2857f



1****** HSPICE -- B-2008.09-SP1 32-BIT (Nov 24 2008) linux ******               
 ******  
 *3.1

  ******  ac analysis tnom=  25.000 temp=  25.000 *****
 ***** operating point status is all       simulation time is     0.     

   *** source        0:vcm              =    3.000E-01 ***

    node    =voltage      node    =voltage      node    =voltage

 +0:vb      = 490.0000m 0:vcm     = 300.0000m 0:vdd     =   1.8000 
 +0:vin+    = 300.0000m 0:vin-    = 300.0000m 0:vout+   =   1.5341 
 +0:vout-   =   1.5341  0:vp      =  17.4535m


 maximum nodal capacitance=   6.591E-13         on node     0:vp              

    nodal  capacitance table 

    node    =    cap      node    =    cap      node    =    cap

 +0:vb      =  36.9583f 0:vcm     =   0.      0:vdd     =   0.     
 +0:vin+    = 586.3573f 0:vin-    = 586.3573f 0:vout+   =  99.1175f
 +0:vout-   =  99.1175f 0:vp      = 659.1044f

 

 ****  voltage sources

 subckt                                                         
 element  0:vdd      0:vcm      0:vin+     0:vin-     0:vb      
  volts      1.8000   300.0000m    0.         0.       490.0000m
  current   -5.3177u    0.         0.         0.         0.     
  power      9.5718u    0.         0.         0.         0.     

     total voltage source power dissipation=    9.5718u       watts



 **** resistors

 subckt                        
 element  0:r1       0:r0      
  r value  100.0000k  100.0000k
  v drop   265.8825m  265.8825m
  current    2.6588u    2.6588u
  power    706.9351n  706.9351n



 **** mosfets


 subckt                                   
 element  0:m3       0:m2       0:m1      
 model    0:n_18.1   0:n_18.1   0:n_18.1  
 region       Linear     Cutoff     Cutoff
  id         5.3176u    2.6588u    2.6588u
  ibs     -8.605e-22 -104.6602a -104.6602a
  ibd      -13.5780a   -9.1993f   -9.1993f
  vgs      490.0000m  282.5465m  282.5465m
  vds       17.4535m    1.5167     1.5167 
  vbs        0.       -17.4535m  -17.4535m
  vth      449.3049m  336.2500m  336.2500m
  vdsat     89.3923m   45.1251m   45.1251m
  vod       40.6951m  -53.7035m  -53.7035m
  beta       6.4802m    9.0086m    9.0086m
  gam eff  507.4459m  507.9328m  507.9328m
  gm        70.6507u   67.3501u   67.3501u
  gds      269.6968u  430.4228n  430.4228n
  gmb       14.2149u   13.7926u   13.7926u
  cdtot     31.0506f   99.1175f   99.1175f
  cgtot     36.9583f  586.3573f  586.3573f
  cstot     40.3182f  314.0269f  314.0269f
  cbtot     31.7707f  554.9112f  554.9112f
  cgs       24.3382f  196.4121f  196.4121f
  cgd        9.8438f   32.0585f   32.0585f



 ******  
 *3.1

  ******  ac analysis tnom=  25.000 temp=  25.000 *****
x

        freq    volt db    
                   vout+   
                   vout-   
   10.00000m     16.2007   
   10.23293m     16.2007   
   10.47129m     16.2007   
   10.71519m     16.2007   
   10.96478m     16.2007   
   11.22018m     16.2007   
   11.48154m     16.2007   
   11.74898m     16.2007   
   12.02264m     16.2007   
   12.30269m     16.2007   
   12.58925m     16.2007   
   12.88250m     16.2007   
   13.18257m     16.2007   
   13.48963m     16.2007   
   13.80384m     16.2007   
   14.12538m     16.2007   
   14.45440m     16.2007   
   14.79108m     16.2007   
   15.13561m     16.2007   
   15.48817m     16.2007   
   15.84893m     16.2007   
   16.21810m     16.2007   
   16.59587m     16.2007   
   16.98244m     16.2007   
   17.37801m     16.2007   
   17.78279m     16.2007   
   18.19701m     16.2007   
   18.62087m     16.2007   
   19.05461m     16.2007   
   19.49845m     16.2007   
   19.95262m     16.2007   
   20.41738m     16.2007   
   20.89296m     16.2007   
   21.37962m     16.2007   
   21.87762m     16.2007   
   22.38721m     16.2007   
   22.90868m     16.2007   
   23.44229m     16.2007   
   23.98833m     16.2007   
   24.54709m     16.2007   
   25.11886m     16.2007   
   25.70396m     16.2007   
   26.30268m     16.2007   
   26.91535m     16.2007   
   27.54229m     16.2007   
   28.18383m     16.2007   
   28.84032m     16.2007   
   29.51209m     16.2007   
   30.19952m     16.2007   
   30.90295m     16.2007   
   31.62278m     16.2007   
   32.35937m     16.2007   
   33.11311m     16.2007   
   33.88442m     16.2007   
   34.67369m     16.2007   
   35.48134m     16.2007   
   36.30781m     16.2007   
   37.15352m     16.2007   
   38.01894m     16.2007   
   38.90451m     16.2007   
   39.81072m     16.2007   
   40.73803m     16.2007   
   41.68694m     16.2007   
   42.65795m     16.2007   
   43.65158m     16.2007   
   44.66836m     16.2007   
   45.70882m     16.2007   
   46.77351m     16.2007   
   47.86301m     16.2007   
   48.97788m     16.2007   
   50.11872m     16.2007   
   51.28614m     16.2007   
   52.48075m     16.2007   
   53.70318m     16.2007   
   54.95409m     16.2007   
   56.23413m     16.2007   
   57.54399m     16.2007   
   58.88437m     16.2007   
   60.25596m     16.2007   
   61.65950m     16.2007   
   63.09573m     16.2007   
   64.56542m     16.2007   
   66.06934m     16.2007   
   67.60830m     16.2007   
   69.18310m     16.2007   
   70.79458m     16.2007   
   72.44360m     16.2007   
   74.13102m     16.2007   
   75.85776m     16.2007   
   77.62471m     16.2007   
   79.43282m     16.2007   
   81.28305m     16.2007   
   83.17638m     16.2007   
   85.11380m     16.2007   
   87.09636m     16.2007   
   89.12509m     16.2007   
   91.20108m     16.2007   
   93.32543m     16.2007   
   95.49926m     16.2007   
   97.72372m     16.2007   
  100.00000m     16.2007   
  102.32930m     16.2007   
  104.71285m     16.2007   
  107.15193m     16.2007   
  109.64782m     16.2007   
  112.20185m     16.2007   
  114.81536m     16.2007   
  117.48976m     16.2007   
  120.22644m     16.2007   
  123.02688m     16.2007   
  125.89254m     16.2007   
  128.82496m     16.2007   
  131.82567m     16.2007   
  134.89629m     16.2007   
  138.03843m     16.2007   
  141.25375m     16.2007   
  144.54398m     16.2007   
  147.91084m     16.2007   
  151.35612m     16.2007   
  154.88166m     16.2007   
  158.48932m     16.2007   
  162.18101m     16.2007   
  165.95869m     16.2007   
  169.82437m     16.2007   
  173.78008m     16.2007   
  177.82794m     16.2007   
  181.97009m     16.2007   
  186.20871m     16.2007   
  190.54607m     16.2007   
  194.98446m     16.2007   
  199.52623m     16.2007   
  204.17379m     16.2007   
  208.92961m     16.2007   
  213.79621m     16.2007   
  218.77616m     16.2007   
  223.87211m     16.2007   
  229.08677m     16.2007   
  234.42288m     16.2007   
  239.88329m     16.2007   
  245.47089m     16.2007   
  251.18864m     16.2007   
  257.03958m     16.2007   
  263.02680m     16.2007   
  269.15348m     16.2007   
  275.42287m     16.2007   
  281.83829m     16.2007   
  288.40315m     16.2007   
  295.12092m     16.2007   
  301.99517m     16.2007   
  309.02954m     16.2007   
  316.22777m     16.2007   
  323.59366m     16.2007   
  331.13112m     16.2007   
  338.84416m     16.2007   
  346.73685m     16.2007   
  354.81339m     16.2007   
  363.07805m     16.2007   
  371.53523m     16.2007   
  380.18940m     16.2007   
  389.04514m     16.2007   
  398.10717m     16.2007   
  407.38028m     16.2007   
  416.86938m     16.2007   
  426.57952m     16.2007   
  436.51583m     16.2007   
  446.68359m     16.2007   
  457.08819m     16.2007   
  467.73514m     16.2007   
  478.63009m     16.2007   
  489.77882m     16.2007   
  501.18723m     16.2007   
  512.86138m     16.2007   
  524.80746m     16.2007   
  537.03180m     16.2007   
  549.54087m     16.2007   
  562.34133m     16.2007   
  575.43994m     16.2007   
  588.84366m     16.2007   
  602.55959m     16.2007   
  616.59500m     16.2007   
  630.95734m     16.2007   
  645.65423m     16.2007   
  660.69345m     16.2007   
  676.08298m     16.2007   
  691.83097m     16.2007   
  707.94578m     16.2007   
  724.43596m     16.2007   
  741.31024m     16.2007   
  758.57758m     16.2007   
  776.24712m     16.2007   
  794.32823m     16.2007   
  812.83052m     16.2007   
  831.76377m     16.2007   
  851.13804m     16.2007   
  870.96359m     16.2007   
  891.25094m     16.2007   
  912.01084m     16.2007   
  933.25430m     16.2007   
  954.99259m     16.2007   
  977.23722m     16.2007   
    1.00000      16.2007   
    1.02329      16.2007   
    1.04713      16.2007   
    1.07152      16.2007   
    1.09648      16.2007   
    1.12202      16.2007   
    1.14815      16.2007   
    1.17490      16.2007   
    1.20226      16.2007   
    1.23027      16.2007   
    1.25893      16.2007   
    1.28825      16.2007   
    1.31826      16.2007   
    1.34896      16.2007   
    1.38038      16.2007   
    1.41254      16.2007   
    1.44544      16.2007   
    1.47911      16.2007   
    1.51356      16.2007   
    1.54882      16.2007   
    1.58489      16.2007   
    1.62181      16.2007   
    1.65959      16.2007   
    1.69824      16.2007   
    1.73780      16.2007   
    1.77828      16.2007   
    1.81970      16.2007   
    1.86209      16.2007   
    1.90546      16.2007   
    1.94984      16.2007   
    1.99526      16.2007   
    2.04174      16.2007   
    2.08930      16.2007   
    2.13796      16.2007   
    2.18776      16.2007   
    2.23872      16.2007   
    2.29087      16.2007   
    2.34423      16.2007   
    2.39883      16.2007   
    2.45471      16.2007   
    2.51189      16.2007   
    2.57040      16.2007   
    2.63027      16.2007   
    2.69153      16.2007   
    2.75423      16.2007   
    2.81838      16.2007   
    2.88403      16.2007   
    2.95121      16.2007   
    3.01995      16.2007   
    3.09030      16.2007   
    3.16228      16.2007   
    3.23594      16.2007   
    3.31131      16.2007   
    3.38844      16.2007   
    3.46737      16.2007   
    3.54813      16.2007   
    3.63078      16.2007   
    3.71535      16.2007   
    3.80189      16.2007   
    3.89045      16.2007   
    3.98107      16.2007   
    4.07380      16.2007   
    4.16869      16.2007   
    4.26580      16.2007   
    4.36516      16.2007   
    4.46684      16.2007   
    4.57088      16.2007   
    4.67735      16.2007   
    4.78630      16.2007   
    4.89779      16.2007   
    5.01187      16.2007   
    5.12861      16.2007   
    5.24807      16.2007   
    5.37032      16.2007   
    5.49541      16.2007   
    5.62341      16.2007   
    5.75440      16.2007   
    5.88844      16.2007   
    6.02560      16.2007   
    6.16595      16.2007   
    6.30957      16.2007   
    6.45654      16.2007   
    6.60693      16.2007   
    6.76083      16.2007   
    6.91831      16.2007   
    7.07946      16.2007   
    7.24436      16.2007   
    7.41310      16.2007   
    7.58578      16.2007   
    7.76247      16.2007   
    7.94328      16.2007   
    8.12831      16.2007   
    8.31764      16.2007   
    8.51138      16.2007   
    8.70964      16.2007   
    8.91251      16.2007   
    9.12011      16.2007   
    9.33254      16.2007   
    9.54993      16.2007   
    9.77237      16.2007   
   10.00000      16.2007   
   10.23293      16.2007   
   10.47129      16.2007   
   10.71519      16.2007   
   10.96478      16.2007   
   11.22018      16.2007   
   11.48154      16.2007   
   11.74898      16.2007   
   12.02264      16.2007   
   12.30269      16.2007   
   12.58925      16.2007   
   12.88250      16.2007   
   13.18257      16.2007   
   13.48963      16.2007   
   13.80384      16.2007   
   14.12538      16.2007   
   14.45440      16.2007   
   14.79108      16.2007   
   15.13561      16.2007   
   15.48817      16.2007   
   15.84893      16.2007   
   16.21810      16.2007   
   16.59587      16.2007   
   16.98244      16.2007   
   17.37801      16.2007   
   17.78279      16.2007   
   18.19701      16.2007   
   18.62087      16.2007   
   19.05461      16.2007   
   19.49845      16.2007   
   19.95262      16.2007   
   20.41738      16.2007   
   20.89296      16.2007   
   21.37962      16.2007   
   21.87762      16.2007   
   22.38721      16.2007   
   22.90868      16.2007   
   23.44229      16.2007   
   23.98833      16.2007   
   24.54709      16.2007   
   25.11886      16.2007   
   25.70396      16.2007   
   26.30268      16.2007   
   26.91535      16.2007   
   27.54229      16.2007   
   28.18383      16.2007   
   28.84032      16.2007   
   29.51209      16.2007   
   30.19952      16.2007   
   30.90295      16.2007   
   31.62278      16.2007   
   32.35937      16.2007   
   33.11311      16.2007   
   33.88442      16.2007   
   34.67369      16.2007   
   35.48134      16.2007   
   36.30781      16.2007   
   37.15352      16.2007   
   38.01894      16.2007   
   38.90451      16.2007   
   39.81072      16.2007   
   40.73803      16.2007   
   41.68694      16.2007   
   42.65795      16.2007   
   43.65158      16.2007   
   44.66836      16.2007   
   45.70882      16.2007   
   46.77351      16.2007   
   47.86301      16.2007   
   48.97788      16.2007   
   50.11872      16.2007   
   51.28614      16.2007   
   52.48075      16.2007   
   53.70318      16.2007   
   54.95409      16.2007   
   56.23413      16.2007   
   57.54399      16.2007   
   58.88437      16.2007   
   60.25596      16.2007   
   61.65950      16.2007   
   63.09573      16.2007   
   64.56542      16.2007   
   66.06934      16.2007   
   67.60830      16.2007   
   69.18310      16.2007   
   70.79458      16.2007   
   72.44360      16.2007   
   74.13102      16.2007   
   75.85776      16.2007   
   77.62471      16.2007   
   79.43282      16.2007   
   81.28305      16.2007   
   83.17638      16.2007   
   85.11380      16.2007   
   87.09636      16.2007   
   89.12509      16.2007   
   91.20108      16.2007   
   93.32543      16.2007   
   95.49926      16.2007   
   97.72372      16.2007   
  100.00000      16.2007   
  102.32930      16.2007   
  104.71285      16.2007   
  107.15193      16.2007   
  109.64782      16.2007   
  112.20185      16.2007   
  114.81536      16.2007   
  117.48976      16.2007   
  120.22644      16.2007   
  123.02688      16.2007   
  125.89254      16.2007   
  128.82496      16.2007   
  131.82567      16.2007   
  134.89629      16.2007   
  138.03843      16.2007   
  141.25375      16.2007   
  144.54398      16.2007   
  147.91084      16.2007   
  151.35612      16.2007   
  154.88166      16.2007   
  158.48932      16.2007   
  162.18101      16.2007   
  165.95869      16.2007   
  169.82437      16.2007   
  173.78008      16.2007   
  177.82794      16.2007   
  181.97009      16.2007   
  186.20871      16.2007   
  190.54607      16.2007   
  194.98446      16.2007   
  199.52623      16.2007   
  204.17379      16.2007   
  208.92961      16.2007   
  213.79621      16.2007   
  218.77616      16.2007   
  223.87211      16.2007   
  229.08677      16.2007   
  234.42288      16.2007   
  239.88329      16.2007   
  245.47089      16.2007   
  251.18864      16.2007   
  257.03958      16.2007   
  263.02680      16.2007   
  269.15348      16.2007   
  275.42287      16.2007   
  281.83829      16.2007   
  288.40315      16.2007   
  295.12092      16.2007   
  301.99517      16.2007   
  309.02954      16.2007   
  316.22777      16.2007   
  323.59366      16.2007   
  331.13112      16.2007   
  338.84416      16.2007   
  346.73685      16.2007   
  354.81339      16.2007   
  363.07805      16.2007   
  371.53523      16.2007   
  380.18940      16.2007   
  389.04514      16.2007   
  398.10717      16.2007   
  407.38028      16.2007   
  416.86938      16.2007   
  426.57952      16.2007   
  436.51583      16.2007   
  446.68359      16.2007   
  457.08819      16.2007   
  467.73514      16.2007   
  478.63009      16.2007   
  489.77882      16.2007   
  501.18723      16.2007   
  512.86138      16.2007   
  524.80746      16.2007   
  537.03180      16.2007   
  549.54087      16.2007   
  562.34133      16.2007   
  575.43994      16.2007   
  588.84366      16.2007   
  602.55959      16.2007   
  616.59500      16.2007   
  630.95734      16.2007   
  645.65423      16.2007   
  660.69345      16.2007   
  676.08298      16.2007   
  691.83097      16.2007   
  707.94578      16.2007   
  724.43596      16.2007   
  741.31024      16.2007   
  758.57758      16.2007   
  776.24712      16.2007   
  794.32823      16.2007   
  812.83052      16.2007   
  831.76377      16.2007   
  851.13804      16.2007   
  870.96359      16.2007   
  891.25094      16.2007   
  912.01084      16.2007   
  933.25430      16.2007   
  954.99259      16.2007   
  977.23722      16.2007   
    1.00000k     16.2007   
    1.02329k     16.2007   
    1.04713k     16.2007   
    1.07152k     16.2007   
    1.09648k     16.2007   
    1.12202k     16.2007   
    1.14815k     16.2007   
    1.17490k     16.2007   
    1.20226k     16.2007   
    1.23027k     16.2007   
    1.25893k     16.2007   
    1.28825k     16.2007   
    1.31826k     16.2007   
    1.34896k     16.2007   
    1.38038k     16.2007   
    1.41254k     16.2007   
    1.44544k     16.2007   
    1.47911k     16.2007   
    1.51356k     16.2007   
    1.54882k     16.2007   
    1.58489k     16.2007   
    1.62181k     16.2007   
    1.65959k     16.2007   
    1.69824k     16.2007   
    1.73780k     16.2007   
    1.77828k     16.2007   
    1.81970k     16.2007   
    1.86209k     16.2007   
    1.90546k     16.2007   
    1.94984k     16.2007   
    1.99526k     16.2007   
    2.04174k     16.2007   
    2.08930k     16.2007   
    2.13796k     16.2007   
    2.18776k     16.2007   
    2.23872k     16.2007   
    2.29087k     16.2007   
    2.34423k     16.2007   
    2.39883k     16.2007   
    2.45471k     16.2007   
    2.51189k     16.2007   
    2.57040k     16.2007   
    2.63027k     16.2007   
    2.69153k     16.2007   
    2.75423k     16.2007   
    2.81838k     16.2007   
    2.88403k     16.2007   
    2.95121k     16.2007   
    3.01995k     16.2007   
    3.09030k     16.2007   
    3.16228k     16.2007   
    3.23594k     16.2007   
    3.31131k     16.2007   
    3.38844k     16.2007   
    3.46737k     16.2007   
    3.54813k     16.2007   
    3.63078k     16.2007   
    3.71535k     16.2007   
    3.80189k     16.2007   
    3.89045k     16.2007   
    3.98107k     16.2007   
    4.07380k     16.2007   
    4.16869k     16.2007   
    4.26580k     16.2007   
    4.36516k     16.2007   
    4.46684k     16.2007   
    4.57088k     16.2007   
    4.67735k     16.2007   
    4.78630k     16.2007   
    4.89779k     16.2007   
    5.01187k     16.2007   
    5.12861k     16.2007   
    5.24807k     16.2007   
    5.37032k     16.2007   
    5.49541k     16.2007   
    5.62341k     16.2007   
    5.75440k     16.2007   
    5.88844k     16.2007   
    6.02560k     16.2007   
    6.16595k     16.2007   
    6.30957k     16.2007   
    6.45654k     16.2007   
    6.60693k     16.2007   
    6.76083k     16.2007   
    6.91831k     16.2007   
    7.07946k     16.2007   
    7.24436k     16.2007   
    7.41310k     16.2007   
    7.58578k     16.2007   
    7.76247k     16.2007   
    7.94328k     16.2007   
    8.12831k     16.2007   
    8.31764k     16.2007   
    8.51138k     16.2007   
    8.70964k     16.2007   
    8.91251k     16.2007   
    9.12011k     16.2007   
    9.33254k     16.2007   
    9.54993k     16.2007   
    9.77237k     16.2007   
   10.00000k     16.2007   
   10.23293k     16.2007   
   10.47129k     16.2007   
   10.71519k     16.2007   
   10.96478k     16.2007   
   11.22018k     16.2007   
   11.48154k     16.2007   
   11.74898k     16.2007   
   12.02264k     16.2007   
   12.30269k     16.2007   
   12.58925k     16.2007   
   12.88250k     16.2007   
   13.18257k     16.2007   
   13.48963k     16.2007   
   13.80384k     16.2007   
   14.12538k     16.2007   
   14.45440k     16.2007   
   14.79108k     16.2007   
   15.13561k     16.2007   
   15.48817k     16.2007   
   15.84893k     16.2007   
   16.21810k     16.2007   
   16.59587k     16.2007   
   16.98244k     16.2007   
   17.37801k     16.2007   
   17.78279k     16.2007   
   18.19701k     16.2007   
   18.62087k     16.2007   
   19.05461k     16.2007   
   19.49845k     16.2007   
   19.95262k     16.2007   
   20.41738k     16.2007   
   20.89296k     16.2007   
   21.37962k     16.2007   
   21.87762k     16.2007   
   22.38721k     16.2007   
   22.90868k     16.2007   
   23.44229k     16.2007   
   23.98833k     16.2007   
   24.54709k     16.2007   
   25.11886k     16.2007   
   25.70396k     16.2007   
   26.30268k     16.2007   
   26.91535k     16.2007   
   27.54229k     16.2007   
   28.18383k     16.2007   
   28.84032k     16.2007   
   29.51209k     16.2007   
   30.19952k     16.2007   
   30.90295k     16.2007   
   31.62278k     16.2007   
   32.35937k     16.2007   
   33.11311k     16.2007   
   33.88442k     16.2007   
   34.67369k     16.2007   
   35.48134k     16.2007   
   36.30781k     16.2007   
   37.15352k     16.2007   
   38.01894k     16.2007   
   38.90451k     16.2007   
   39.81072k     16.2007   
   40.73803k     16.2007   
   41.68694k     16.2007   
   42.65795k     16.2007   
   43.65158k     16.2007   
   44.66836k     16.2007   
   45.70882k     16.2007   
   46.77351k     16.2007   
   47.86301k     16.2007   
   48.97788k     16.2007   
   50.11872k     16.2007   
   51.28614k     16.2007   
   52.48075k     16.2007   
   53.70318k     16.2007   
   54.95409k     16.2007   
   56.23413k     16.2007   
   57.54399k     16.2007   
   58.88437k     16.2007   
   60.25596k     16.2007   
   61.65950k     16.2007   
   63.09573k     16.2007   
   64.56542k     16.2007   
   66.06934k     16.2006   
   67.60830k     16.2006   
   69.18310k     16.2006   
   70.79458k     16.2006   
   72.44360k     16.2006   
   74.13102k     16.2006   
   75.85776k     16.2006   
   77.62471k     16.2006   
   79.43282k     16.2006   
   81.28305k     16.2006   
   83.17638k     16.2006   
   85.11380k     16.2006   
   87.09636k     16.2006   
   89.12509k     16.2006   
   91.20108k     16.2006   
   93.32543k     16.2006   
   95.49926k     16.2006   
   97.72372k     16.2006   
  100.00000k     16.2006   
  102.32930k     16.2006   
  104.71285k     16.2005   
  107.15193k     16.2005   
  109.64782k     16.2005   
  112.20185k     16.2005   
  114.81536k     16.2005   
  117.48976k     16.2005   
  120.22644k     16.2005   
  123.02688k     16.2005   
  125.89254k     16.2005   
  128.82496k     16.2005   
  131.82567k     16.2004   
  134.89629k     16.2004   
  138.03843k     16.2004   
  141.25375k     16.2004   
  144.54398k     16.2004   
  147.91084k     16.2004   
  151.35612k     16.2004   
  154.88166k     16.2003   
  158.48932k     16.2003   
  162.18101k     16.2003   
  165.95869k     16.2003   
  169.82437k     16.2003   
  173.78008k     16.2002   
  177.82794k     16.2002   
  181.97009k     16.2002   
  186.20871k     16.2002   
  190.54607k     16.2002   
  194.98446k     16.2001   
  199.52623k     16.2001   
  204.17379k     16.2001   
  208.92961k     16.2000   
  213.79621k     16.2000   
  218.77616k     16.2000   
  223.87211k     16.1999   
  229.08677k     16.1999   
  234.42288k     16.1999   
  239.88329k     16.1998   
  245.47089k     16.1998   
  251.18864k     16.1997   
  257.03958k     16.1997   
  263.02680k     16.1996   
  269.15348k     16.1996   
  275.42287k     16.1995   
  281.83829k     16.1995   
  288.40315k     16.1994   
  295.12092k     16.1994   
  301.99517k     16.1993   
  309.02954k     16.1992   
  316.22777k     16.1992   
  323.59366k     16.1991   
  331.13112k     16.1990   
  338.84416k     16.1989   
  346.73685k     16.1989   
  354.81339k     16.1988   
  363.07805k     16.1987   
  371.53523k     16.1986   
  380.18940k     16.1985   
  389.04514k     16.1984   
  398.10717k     16.1983   
  407.38028k     16.1982   
  416.86938k     16.1980   
  426.57952k     16.1979   
  436.51583k     16.1978   
  446.68359k     16.1976   
  457.08819k     16.1975   
  467.73514k     16.1973   
  478.63009k     16.1972   
  489.77882k     16.1970   
  501.18723k     16.1968   
  512.86138k     16.1967   
  524.80746k     16.1965   
  537.03180k     16.1963   
  549.54087k     16.1961   
  562.34133k     16.1958   
  575.43994k     16.1956   
  588.84366k     16.1954   
  602.55959k     16.1951   
  616.59500k     16.1948   
  630.95734k     16.1946   
  645.65423k     16.1943   
  660.69345k     16.1940   
  676.08298k     16.1937   
  691.83097k     16.1933   
  707.94578k     16.1930   
  724.43596k     16.1926   
  741.31024k     16.1922   
  758.57758k     16.1918   
  776.24712k     16.1914   
  794.32823k     16.1910   
  812.83052k     16.1905   
  831.76377k     16.1900   
  851.13804k     16.1895   
  870.96359k     16.1890   
  891.25094k     16.1885   
  912.01084k     16.1879   
  933.25430k     16.1873   
  954.99259k     16.1867   
  977.23722k     16.1860   
    1.00000x     16.1853   
    1.02329x     16.1846   
    1.04713x     16.1838   
    1.07152x     16.1830   
    1.09648x     16.1822   
    1.12202x     16.1813   
    1.14815x     16.1804   
    1.17490x     16.1795   
    1.20226x     16.1785   
    1.23027x     16.1774   
    1.25893x     16.1763   
    1.28825x     16.1752   
    1.31826x     16.1740   
    1.34896x     16.1727   
    1.38038x     16.1714   
    1.41254x     16.1700   
    1.44544x     16.1686   
    1.47911x     16.1671   
    1.51356x     16.1655   
    1.54882x     16.1638   
    1.58489x     16.1621   
    1.62181x     16.1603   
    1.65959x     16.1584   
    1.69824x     16.1564   
    1.73780x     16.1543   
    1.77828x     16.1522   
    1.81970x     16.1499   
    1.86209x     16.1475   
    1.90546x     16.1450   
    1.94984x     16.1424   
    1.99526x     16.1397   
    2.04174x     16.1368   
    2.08930x     16.1338   
    2.13796x     16.1307   
    2.18776x     16.1274   
    2.23872x     16.1240   
    2.29087x     16.1204   
    2.34423x     16.1167   
    2.39883x     16.1128   
    2.45471x     16.1087   
    2.51189x     16.1044   
    2.57040x     16.0999   
    2.63027x     16.0952   
    2.69153x     16.0903   
    2.75423x     16.0851   
    2.81838x     16.0798   
    2.88403x     16.0741   
    2.95121x     16.0683   
    3.01995x     16.0621   
    3.09030x     16.0557   
    3.16228x     16.0490   
    3.23594x     16.0420   
    3.31131x     16.0346   
    3.38844x     16.0270   
    3.46737x     16.0189   
    3.54813x     16.0106   
    3.63078x     16.0018   
    3.71535x     15.9926   
    3.80189x     15.9831   
    3.89045x     15.9731   
    3.98107x     15.9627   
    4.07380x     15.9518   
    4.16869x     15.9404   
    4.26580x     15.9285   
    4.36516x     15.9161   
    4.46684x     15.9031   
    4.57088x     15.8896   
    4.67735x     15.8754   
    4.78630x     15.8607   
    4.89779x     15.8453   
    5.01187x     15.8293   
    5.12861x     15.8125   
    5.24807x     15.7951   
    5.37032x     15.7768   
    5.49541x     15.7579   
    5.62341x     15.7381   
    5.75440x     15.7174   
    5.88844x     15.6960   
    6.02560x     15.6736   
    6.16595x     15.6502   
    6.30957x     15.6259   
    6.45654x     15.6007   
    6.60693x     15.5743   
    6.76083x     15.5469   
    6.91831x     15.5184   
    7.07946x     15.4888   
    7.24436x     15.4580   
    7.41310x     15.4259   
    7.58578x     15.3926   
    7.76247x     15.3581   
    7.94328x     15.3221   
    8.12831x     15.2848   
    8.31764x     15.2461   
    8.51138x     15.2059   
    8.70964x     15.1643   
    8.91251x     15.1211   
    9.12011x     15.0763   
    9.33254x     15.0299   
    9.54993x     14.9818   
    9.77237x     14.9320   
   10.00000x     14.8806   
   10.23293x     14.8273   
   10.47129x     14.7722   
   10.71519x     14.7153   
   10.96478x     14.6564   
   11.22018x     14.5957   
   11.48154x     14.5330   
   11.74898x     14.4683   
   12.02264x     14.4016   
   12.30269x     14.3328   
   12.58925x     14.2619   
   12.88250x     14.1890   
   13.18257x     14.1138   
   13.48963x     14.0366   
   13.80384x     13.9571   
   14.12538x     13.8755   
   14.45440x     13.7916   
   14.79108x     13.7055   
   15.13561x     13.6171   
   15.48817x     13.5265   
   15.84893x     13.4336   
   16.21810x     13.3385   
   16.59587x     13.2410   
   16.98244x     13.1413   
   17.37801x     13.0393   
   17.78279x     12.9351   
   18.19701x     12.8285   
   18.62087x     12.7197   
   19.05461x     12.6087   
   19.49845x     12.4954   
   19.95262x     12.3799   
   20.41738x     12.2622   
   20.89296x     12.1424   
   21.37962x     12.0204   
   21.87762x     11.8962   
   22.38721x     11.7699   
   22.90868x     11.6416   
   23.44229x     11.5112   
   23.98833x     11.3788   
   24.54709x     11.2444   
   25.11886x     11.1081   
   25.70396x     10.9699   
   26.30268x     10.8298   
   26.91535x     10.6878   
   27.54229x     10.5441   
   28.18383x     10.3986   
   28.84032x     10.2514   
   29.51209x     10.1026   
   30.19952x      9.9521   
   30.90295x      9.8000   
   31.62278x      9.6464   
   32.35937x      9.4914   
   33.11311x      9.3348   
   33.88442x      9.1769   
   34.67369x      9.0176   
   35.48134x      8.8570   
   36.30781x      8.6951   
   37.15352x      8.5320   
   38.01894x      8.3677   
   38.90451x      8.2023   
   39.81072x      8.0358   
   40.73803x      7.8683   
   41.68694x      7.6998   
   42.65795x      7.5303   
   43.65158x      7.3598   
   44.66836x      7.1886   
   45.70882x      7.0164   
   46.77351x      6.8435   
   47.86301x      6.6699   
   48.97788x      6.4955   
   50.11872x      6.3205   
   51.28614x      6.1448   
   52.48075x      5.9686   
   53.70318x      5.7918   
   54.95409x      5.6145   
   56.23413x      5.4367   
   57.54399x      5.2585   
   58.88437x      5.0799   
   60.25596x      4.9009   
   61.65950x      4.7216   
   63.09573x      4.5420   
   64.56542x      4.3622   
   66.06934x      4.1821   
   67.60830x      4.0019   
   69.18310x      3.8216   
   70.79458x      3.6411   
   72.44360x      3.4606   
   74.13102x      3.2800   
   75.85776x      3.0994   
   77.62471x      2.9189   
   79.43282x      2.7384   
   81.28305x      2.5580   
   83.17638x      2.3778   
   85.11380x      2.1978   
   87.09636x      2.0179   
   89.12509x      1.8383   
   91.20108x      1.6590   
   93.32543x      1.4801   
   95.49926x      1.3015   
   97.72372x      1.1232   
  100.00000x    945.4499m  
y

          ***** job concluded
1****** HSPICE -- B-2008.09-SP1 32-BIT (Nov 24 2008) linux ******               
 ******  
 *3.1

  ******  ac analysis tnom=  25.000 temp=  25.000 *****
 ***** operating point status is all       simulation time is     0.     

   *** source        0:vcm              =    3.100E-01 ***

    node    =voltage      node    =voltage      node    =voltage

 +0:vb      = 490.0000m 0:vcm     = 310.0000m 0:vdd     =   1.8000 
 +0:vin+    = 310.0000m 0:vin-    = 310.0000m 0:vout+   =   1.4920 
 +0:vout-   =   1.4920  0:vp      =  20.6556m


 maximum nodal capacitance=   7.339E-13         on node     0:vp              

    nodal  capacitance table 

    node    =    cap      node    =    cap      node    =    cap

 +0:vb      =  36.6553f 0:vcm     =   0.      0:vdd     =   0.     
 +0:vin+    = 613.0647f 0:vin-    = 613.0647f 0:vout+   =  99.5678f
 +0:vout-   =  99.5678f 0:vp      = 733.9043f

 

 ****  voltage sources

 subckt                                                         
 element  0:vdd      0:vcm      0:vin+     0:vin-     0:vb      
  volts      1.8000   310.0000m    0.         0.       490.0000m
  current   -6.1610u    0.         0.         0.         0.     
  power     11.0898u    0.         0.         0.         0.     

     total voltage source power dissipation=   11.0898u       watts



 **** resistors

 subckt                        
 element  0:r1       0:r0      
  r value  100.0000k  100.0000k
  v drop   308.0496m  308.0496m
  current    3.0805u    3.0805u
  power    948.9456n  948.9456n



 **** mosfets


 subckt                                   
 element  0:m3       0:m2       0:m1      
 model    0:n_18.1   0:n_18.1   0:n_18.1  
 region       Linear     Cutoff     Cutoff
  id         6.1610u    3.0805u    3.0805u
  ibs     -9.970e-22 -123.8614a -123.8614a
  ibd      -16.0691a   -8.9465f   -8.9465f
  vgs      490.0000m  289.3444m  289.3444m
  vds       20.6556m    1.4713     1.4713 
  vbs        0.       -20.6556m  -20.6556m
  vth      449.2635m  337.1079m  337.1079m
  vdsat     89.4147m   46.2866m   46.2866m
  vod       40.7365m  -47.7635m  -47.7635m
  beta       6.4802m    9.0111m    9.0111m
  gam eff  507.4460m  508.0216m  508.0216m
  gm        82.7285u   76.9430u   76.9430u
  gds      257.1419u  494.3477n  494.3477n
  gmb       16.6304u   15.7214u   15.7214u
  cdtot     29.4231f   99.5678f   99.5678f
  cgtot     36.6553f  613.0647f  613.0647f
  cstot     40.0959f  352.2406f  352.2406f
  cbtot     31.7103f  554.3984f  554.3984f
  cgs       24.6215f  230.7835f  230.7835f
  cgd        9.1974f   31.9388f   31.9388f



 ******  
 *3.1

  ******  ac analysis tnom=  25.000 temp=  25.000 *****
x

        freq    volt db    
                   vout+   
                   vout-   
   10.00000m     17.3043   
   10.23293m     17.3043   
   10.47129m     17.3043   
   10.71519m     17.3043   
   10.96478m     17.3043   
   11.22018m     17.3043   
   11.48154m     17.3043   
   11.74898m     17.3043   
   12.02264m     17.3043   
   12.30269m     17.3043   
   12.58925m     17.3043   
   12.88250m     17.3043   
   13.18257m     17.3043   
   13.48963m     17.3043   
   13.80384m     17.3043   
   14.12538m     17.3043   
   14.45440m     17.3043   
   14.79108m     17.3043   
   15.13561m     17.3043   
   15.48817m     17.3043   
   15.84893m     17.3043   
   16.21810m     17.3043   
   16.59587m     17.3043   
   16.98244m     17.3043   
   17.37801m     17.3043   
   17.78279m     17.3043   
   18.19701m     17.3043   
   18.62087m     17.3043   
   19.05461m     17.3043   
   19.49845m     17.3043   
   19.95262m     17.3043   
   20.41738m     17.3043   
   20.89296m     17.3043   
   21.37962m     17.3043   
   21.87762m     17.3043   
   22.38721m     17.3043   
   22.90868m     17.3043   
   23.44229m     17.3043   
   23.98833m     17.3043   
   24.54709m     17.3043   
   25.11886m     17.3043   
   25.70396m     17.3043   
   26.30268m     17.3043   
   26.91535m     17.3043   
   27.54229m     17.3043   
   28.18383m     17.3043   
   28.84032m     17.3043   
   29.51209m     17.3043   
   30.19952m     17.3043   
   30.90295m     17.3043   
   31.62278m     17.3043   
   32.35937m     17.3043   
   33.11311m     17.3043   
   33.88442m     17.3043   
   34.67369m     17.3043   
   35.48134m     17.3043   
   36.30781m     17.3043   
   37.15352m     17.3043   
   38.01894m     17.3043   
   38.90451m     17.3043   
   39.81072m     17.3043   
   40.73803m     17.3043   
   41.68694m     17.3043   
   42.65795m     17.3043   
   43.65158m     17.3043   
   44.66836m     17.3043   
   45.70882m     17.3043   
   46.77351m     17.3043   
   47.86301m     17.3043   
   48.97788m     17.3043   
   50.11872m     17.3043   
   51.28614m     17.3043   
   52.48075m     17.3043   
   53.70318m     17.3043   
   54.95409m     17.3043   
   56.23413m     17.3043   
   57.54399m     17.3043   
   58.88437m     17.3043   
   60.25596m     17.3043   
   61.65950m     17.3043   
   63.09573m     17.3043   
   64.56542m     17.3043   
   66.06934m     17.3043   
   67.60830m     17.3043   
   69.18310m     17.3043   
   70.79458m     17.3043   
   72.44360m     17.3043   
   74.13102m     17.3043   
   75.85776m     17.3043   
   77.62471m     17.3043   
   79.43282m     17.3043   
   81.28305m     17.3043   
   83.17638m     17.3043   
   85.11380m     17.3043   
   87.09636m     17.3043   
   89.12509m     17.3043   
   91.20108m     17.3043   
   93.32543m     17.3043   
   95.49926m     17.3043   
   97.72372m     17.3043   
  100.00000m     17.3043   
  102.32930m     17.3043   
  104.71285m     17.3043   
  107.15193m     17.3043   
  109.64782m     17.3043   
  112.20185m     17.3043   
  114.81536m     17.3043   
  117.48976m     17.3043   
  120.22644m     17.3043   
  123.02688m     17.3043   
  125.89254m     17.3043   
  128.82496m     17.3043   
  131.82567m     17.3043   
  134.89629m     17.3043   
  138.03843m     17.3043   
  141.25375m     17.3043   
  144.54398m     17.3043   
  147.91084m     17.3043   
  151.35612m     17.3043   
  154.88166m     17.3043   
  158.48932m     17.3043   
  162.18101m     17.3043   
  165.95869m     17.3043   
  169.82437m     17.3043   
  173.78008m     17.3043   
  177.82794m     17.3043   
  181.97009m     17.3043   
  186.20871m     17.3043   
  190.54607m     17.3043   
  194.98446m     17.3043   
  199.52623m     17.3043   
  204.17379m     17.3043   
  208.92961m     17.3043   
  213.79621m     17.3043   
  218.77616m     17.3043   
  223.87211m     17.3043   
  229.08677m     17.3043   
  234.42288m     17.3043   
  239.88329m     17.3043   
  245.47089m     17.3043   
  251.18864m     17.3043   
  257.03958m     17.3043   
  263.02680m     17.3043   
  269.15348m     17.3043   
  275.42287m     17.3043   
  281.83829m     17.3043   
  288.40315m     17.3043   
  295.12092m     17.3043   
  301.99517m     17.3043   
  309.02954m     17.3043   
  316.22777m     17.3043   
  323.59366m     17.3043   
  331.13112m     17.3043   
  338.84416m     17.3043   
  346.73685m     17.3043   
  354.81339m     17.3043   
  363.07805m     17.3043   
  371.53523m     17.3043   
  380.18940m     17.3043   
  389.04514m     17.3043   
  398.10717m     17.3043   
  407.38028m     17.3043   
  416.86938m     17.3043   
  426.57952m     17.3043   
  436.51583m     17.3043   
  446.68359m     17.3043   
  457.08819m     17.3043   
  467.73514m     17.3043   
  478.63009m     17.3043   
  489.77882m     17.3043   
  501.18723m     17.3043   
  512.86138m     17.3043   
  524.80746m     17.3043   
  537.03180m     17.3043   
  549.54087m     17.3043   
  562.34133m     17.3043   
  575.43994m     17.3043   
  588.84366m     17.3043   
  602.55959m     17.3043   
  616.59500m     17.3043   
  630.95734m     17.3043   
  645.65423m     17.3043   
  660.69345m     17.3043   
  676.08298m     17.3043   
  691.83097m     17.3043   
  707.94578m     17.3043   
  724.43596m     17.3043   
  741.31024m     17.3043   
  758.57758m     17.3043   
  776.24712m     17.3043   
  794.32823m     17.3043   
  812.83052m     17.3043   
  831.76377m     17.3043   
  851.13804m     17.3043   
  870.96359m     17.3043   
  891.25094m     17.3043   
  912.01084m     17.3043   
  933.25430m     17.3043   
  954.99259m     17.3043   
  977.23722m     17.3043   
    1.00000      17.3043   
    1.02329      17.3043   
    1.04713      17.3043   
    1.07152      17.3043   
    1.09648      17.3043   
    1.12202      17.3043   
    1.14815      17.3043   
    1.17490      17.3043   
    1.20226      17.3043   
    1.23027      17.3043   
    1.25893      17.3043   
    1.28825      17.3043   
    1.31826      17.3043   
    1.34896      17.3043   
    1.38038      17.3043   
    1.41254      17.3043   
    1.44544      17.3043   
    1.47911      17.3043   
    1.51356      17.3043   
    1.54882      17.3043   
    1.58489      17.3043   
    1.62181      17.3043   
    1.65959      17.3043   
    1.69824      17.3043   
    1.73780      17.3043   
    1.77828      17.3043   
    1.81970      17.3043   
    1.86209      17.3043   
    1.90546      17.3043   
    1.94984      17.3043   
    1.99526      17.3043   
    2.04174      17.3043   
    2.08930      17.3043   
    2.13796      17.3043   
    2.18776      17.3043   
    2.23872      17.3043   
    2.29087      17.3043   
    2.34423      17.3043   
    2.39883      17.3043   
    2.45471      17.3043   
    2.51189      17.3043   
    2.57040      17.3043   
    2.63027      17.3043   
    2.69153      17.3043   
    2.75423      17.3043   
    2.81838      17.3043   
    2.88403      17.3043   
    2.95121      17.3043   
    3.01995      17.3043   
    3.09030      17.3043   
    3.16228      17.3043   
    3.23594      17.3043   
    3.31131      17.3043   
    3.38844      17.3043   
    3.46737      17.3043   
    3.54813      17.3043   
    3.63078      17.3043   
    3.71535      17.3043   
    3.80189      17.3043   
    3.89045      17.3043   
    3.98107      17.3043   
    4.07380      17.3043   
    4.16869      17.3043   
    4.26580      17.3043   
    4.36516      17.3043   
    4.46684      17.3043   
    4.57088      17.3043   
    4.67735      17.3043   
    4.78630      17.3043   
    4.89779      17.3043   
    5.01187      17.3043   
    5.12861      17.3043   
    5.24807      17.3043   
    5.37032      17.3043   
    5.49541      17.3043   
    5.62341      17.3043   
    5.75440      17.3043   
    5.88844      17.3043   
    6.02560      17.3043   
    6.16595      17.3043   
    6.30957      17.3043   
    6.45654      17.3043   
    6.60693      17.3043   
    6.76083      17.3043   
    6.91831      17.3043   
    7.07946      17.3043   
    7.24436      17.3043   
    7.41310      17.3043   
    7.58578      17.3043   
    7.76247      17.3043   
    7.94328      17.3043   
    8.12831      17.3043   
    8.31764      17.3043   
    8.51138      17.3043   
    8.70964      17.3043   
    8.91251      17.3043   
    9.12011      17.3043   
    9.33254      17.3043   
    9.54993      17.3043   
    9.77237      17.3043   
   10.00000      17.3043   
   10.23293      17.3043   
   10.47129      17.3043   
   10.71519      17.3043   
   10.96478      17.3043   
   11.22018      17.3043   
   11.48154      17.3043   
   11.74898      17.3043   
   12.02264      17.3043   
   12.30269      17.3043   
   12.58925      17.3043   
   12.88250      17.3043   
   13.18257      17.3043   
   13.48963      17.3043   
   13.80384      17.3043   
   14.12538      17.3043   
   14.45440      17.3043   
   14.79108      17.3043   
   15.13561      17.3043   
   15.48817      17.3043   
   15.84893      17.3043   
   16.21810      17.3043   
   16.59587      17.3043   
   16.98244      17.3043   
   17.37801      17.3043   
   17.78279      17.3043   
   18.19701      17.3043   
   18.62087      17.3043   
   19.05461      17.3043   
   19.49845      17.3043   
   19.95262      17.3043   
   20.41738      17.3043   
   20.89296      17.3043   
   21.37962      17.3043   
   21.87762      17.3043   
   22.38721      17.3043   
   22.90868      17.3043   
   23.44229      17.3043   
   23.98833      17.3043   
   24.54709      17.3043   
   25.11886      17.3043   
   25.70396      17.3043   
   26.30268      17.3043   
   26.91535      17.3043   
   27.54229      17.3043   
   28.18383      17.3043   
   28.84032      17.3043   
   29.51209      17.3043   
   30.19952      17.3043   
   30.90295      17.3043   
   31.62278      17.3043   
   32.35937      17.3043   
   33.11311      17.3043   
   33.88442      17.3043   
   34.67369      17.3043   
   35.48134      17.3043   
   36.30781      17.3043   
   37.15352      17.3043   
   38.01894      17.3043   
   38.90451      17.3043   
   39.81072      17.3043   
   40.73803      17.3043   
   41.68694      17.3043   
   42.65795      17.3043   
   43.65158      17.3043   
   44.66836      17.3043   
   45.70882      17.3043   
   46.77351      17.3043   
   47.86301      17.3043   
   48.97788      17.3043   
   50.11872      17.3043   
   51.28614      17.3043   
   52.48075      17.3043   
   53.70318      17.3043   
   54.95409      17.3043   
   56.23413      17.3043   
   57.54399      17.3043   
   58.88437      17.3043   
   60.25596      17.3043   
   61.65950      17.3043   
   63.09573      17.3043   
   64.56542      17.3043   
   66.06934      17.3043   
   67.60830      17.3043   
   69.18310      17.3043   
   70.79458      17.3043   
   72.44360      17.3043   
   74.13102      17.3043   
   75.85776      17.3043   
   77.62471      17.3043   
   79.43282      17.3043   
   81.28305      17.3043   
   83.17638      17.3043   
   85.11380      17.3043   
   87.09636      17.3043   
   89.12509      17.3043   
   91.20108      17.3043   
   93.32543      17.3043   
   95.49926      17.3043   
   97.72372      17.3043   
  100.00000      17.3043   
  102.32930      17.3043   
  104.71285      17.3043   
  107.15193      17.3043   
  109.64782      17.3043   
  112.20185      17.3043   
  114.81536      17.3043   
  117.48976      17.3043   
  120.22644      17.3043   
  123.02688      17.3043   
  125.89254      17.3043   
  128.82496      17.3043   
  131.82567      17.3043   
  134.89629      17.3043   
  138.03843      17.3043   
  141.25375      17.3043   
  144.54398      17.3043   
  147.91084      17.3043   
  151.35612      17.3043   
  154.88166      17.3043   
  158.48932      17.3043   
  162.18101      17.3043   
  165.95869      17.3043   
  169.82437      17.3043   
  173.78008      17.3043   
  177.82794      17.3043   
  181.97009      17.3043   
  186.20871      17.3043   
  190.54607      17.3043   
  194.98446      17.3043   
  199.52623      17.3043   
  204.17379      17.3043   
  208.92961      17.3043   
  213.79621      17.3043   
  218.77616      17.3043   
  223.87211      17.3043   
  229.08677      17.3043   
  234.42288      17.3043   
  239.88329      17.3043   
  245.47089      17.3043   
  251.18864      17.3043   
  257.03958      17.3043   
  263.02680      17.3043   
  269.15348      17.3043   
  275.42287      17.3043   
  281.83829      17.3043   
  288.40315      17.3043   
  295.12092      17.3043   
  301.99517      17.3043   
  309.02954      17.3043   
  316.22777      17.3043   
  323.59366      17.3043   
  331.13112      17.3043   
  338.84416      17.3043   
  346.73685      17.3043   
  354.81339      17.3043   
  363.07805      17.3043   
  371.53523      17.3043   
  380.18940      17.3043   
  389.04514      17.3043   
  398.10717      17.3043   
  407.38028      17.3043   
  416.86938      17.3043   
  426.57952      17.3043   
  436.51583      17.3043   
  446.68359      17.3043   
  457.08819      17.3043   
  467.73514      17.3043   
  478.63009      17.3043   
  489.77882      17.3043   
  501.18723      17.3043   
  512.86138      17.3043   
  524.80746      17.3043   
  537.03180      17.3043   
  549.54087      17.3043   
  562.34133      17.3043   
  575.43994      17.3043   
  588.84366      17.3043   
  602.55959      17.3043   
  616.59500      17.3043   
  630.95734      17.3043   
  645.65423      17.3043   
  660.69345      17.3043   
  676.08298      17.3043   
  691.83097      17.3043   
  707.94578      17.3043   
  724.43596      17.3043   
  741.31024      17.3043   
  758.57758      17.3043   
  776.24712      17.3043   
  794.32823      17.3043   
  812.83052      17.3043   
  831.76377      17.3043   
  851.13804      17.3043   
  870.96359      17.3043   
  891.25094      17.3043   
  912.01084      17.3043   
  933.25430      17.3043   
  954.99259      17.3043   
  977.23722      17.3043   
    1.00000k     17.3043   
    1.02329k     17.3043   
    1.04713k     17.3043   
    1.07152k     17.3043   
    1.09648k     17.3043   
    1.12202k     17.3043   
    1.14815k     17.3043   
    1.17490k     17.3043   
    1.20226k     17.3043   
    1.23027k     17.3043   
    1.25893k     17.3043   
    1.28825k     17.3043   
    1.31826k     17.3043   
    1.34896k     17.3043   
    1.38038k     17.3043   
    1.41254k     17.3043   
    1.44544k     17.3043   
    1.47911k     17.3043   
    1.51356k     17.3043   
    1.54882k     17.3043   
    1.58489k     17.3043   
    1.62181k     17.3043   
    1.65959k     17.3043   
    1.69824k     17.3043   
    1.73780k     17.3043   
    1.77828k     17.3043   
    1.81970k     17.3043   
    1.86209k     17.3043   
    1.90546k     17.3043   
    1.94984k     17.3043   
    1.99526k     17.3043   
    2.04174k     17.3043   
    2.08930k     17.3043   
    2.13796k     17.3043   
    2.18776k     17.3043   
    2.23872k     17.3043   
    2.29087k     17.3043   
    2.34423k     17.3043   
    2.39883k     17.3043   
    2.45471k     17.3043   
    2.51189k     17.3043   
    2.57040k     17.3043   
    2.63027k     17.3043   
    2.69153k     17.3043   
    2.75423k     17.3043   
    2.81838k     17.3043   
    2.88403k     17.3043   
    2.95121k     17.3043   
    3.01995k     17.3043   
    3.09030k     17.3043   
    3.16228k     17.3043   
    3.23594k     17.3043   
    3.31131k     17.3043   
    3.38844k     17.3043   
    3.46737k     17.3043   
    3.54813k     17.3043   
    3.63078k     17.3043   
    3.71535k     17.3043   
    3.80189k     17.3043   
    3.89045k     17.3043   
    3.98107k     17.3043   
    4.07380k     17.3043   
    4.16869k     17.3043   
    4.26580k     17.3043   
    4.36516k     17.3043   
    4.46684k     17.3043   
    4.57088k     17.3043   
    4.67735k     17.3043   
    4.78630k     17.3043   
    4.89779k     17.3043   
    5.01187k     17.3043   
    5.12861k     17.3043   
    5.24807k     17.3043   
    5.37032k     17.3043   
    5.49541k     17.3043   
    5.62341k     17.3043   
    5.75440k     17.3043   
    5.88844k     17.3043   
    6.02560k     17.3043   
    6.16595k     17.3043   
    6.30957k     17.3043   
    6.45654k     17.3043   
    6.60693k     17.3043   
    6.76083k     17.3043   
    6.91831k     17.3043   
    7.07946k     17.3043   
    7.24436k     17.3043   
    7.41310k     17.3043   
    7.58578k     17.3043   
    7.76247k     17.3043   
    7.94328k     17.3043   
    8.12831k     17.3043   
    8.31764k     17.3043   
    8.51138k     17.3043   
    8.70964k     17.3043   
    8.91251k     17.3043   
    9.12011k     17.3043   
    9.33254k     17.3043   
    9.54993k     17.3043   
    9.77237k     17.3042   
   10.00000k     17.3043   
   10.23293k     17.3043   
   10.47129k     17.3043   
   10.71519k     17.3042   
   10.96478k     17.3042   
   11.22018k     17.3042   
   11.48154k     17.3042   
   11.74898k     17.3042   
   12.02264k     17.3042   
   12.30269k     17.3042   
   12.58925k     17.3042   
   12.88250k     17.3042   
   13.18257k     17.3042   
   13.48963k     17.3042   
   13.80384k     17.3042   
   14.12538k     17.3042   
   14.45440k     17.3042   
   14.79108k     17.3042   
   15.13561k     17.3042   
   15.48817k     17.3042   
   15.84893k     17.3042   
   16.21810k     17.3042   
   16.59587k     17.3042   
   16.98244k     17.3042   
   17.37801k     17.3042   
   17.78279k     17.3042   
   18.19701k     17.3042   
   18.62087k     17.3042   
   19.05461k     17.3042   
   19.49845k     17.3042   
   19.95262k     17.3042   
   20.41738k     17.3042   
   20.89296k     17.3042   
   21.37962k     17.3042   
   21.87762k     17.3042   
   22.38721k     17.3042   
   22.90868k     17.3042   
   23.44229k     17.3042   
   23.98833k     17.3042   
   24.54709k     17.3042   
   25.11886k     17.3042   
   25.70396k     17.3042   
   26.30268k     17.3042   
   26.91535k     17.3042   
   27.54229k     17.3042   
   28.18383k     17.3042   
   28.84032k     17.3042   
   29.51209k     17.3042   
   30.19952k     17.3042   
   30.90295k     17.3042   
   31.62278k     17.3042   
   32.35937k     17.3042   
   33.11311k     17.3042   
   33.88442k     17.3042   
   34.67369k     17.3042   
   35.48134k     17.3042   
   36.30781k     17.3042   
   37.15352k     17.3042   
   38.01894k     17.3042   
   38.90451k     17.3042   
   39.81072k     17.3042   
   40.73803k     17.3042   
   41.68694k     17.3042   
   42.65795k     17.3042   
   43.65158k     17.3042   
   44.66836k     17.3042   
   45.70882k     17.3042   
   46.77351k     17.3042   
   47.86301k     17.3042   
   48.97788k     17.3042   
   50.11872k     17.3042   
   51.28614k     17.3042   
   52.48075k     17.3042   
   53.70318k     17.3042   
   54.95409k     17.3042   
   56.23413k     17.3042   
   57.54399k     17.3042   
   58.88437k     17.3042   
   60.25596k     17.3042   
   61.65950k     17.3042   
   63.09573k     17.3042   
   64.56542k     17.3042   
   66.06934k     17.3042   
   67.60830k     17.3042   
   69.18310k     17.3042   
   70.79458k     17.3042   
   72.44360k     17.3042   
   74.13102k     17.3042   
   75.85776k     17.3042   
   77.62471k     17.3042   
   79.43282k     17.3042   
   81.28305k     17.3042   
   83.17638k     17.3041   
   85.11380k     17.3041   
   87.09636k     17.3041   
   89.12509k     17.3041   
   91.20108k     17.3041   
   93.32543k     17.3041   
   95.49926k     17.3041   
   97.72372k     17.3041   
  100.00000k     17.3041   
  102.32930k     17.3041   
  104.71285k     17.3041   
  107.15193k     17.3041   
  109.64782k     17.3041   
  112.20185k     17.3041   
  114.81536k     17.3040   
  117.48976k     17.3040   
  120.22644k     17.3040   
  123.02688k     17.3040   
  125.89254k     17.3040   
  128.82496k     17.3040   
  131.82567k     17.3040   
  134.89629k     17.3040   
  138.03843k     17.3040   
  141.25375k     17.3039   
  144.54398k     17.3039   
  147.91084k     17.3039   
  151.35612k     17.3039   
  154.88166k     17.3039   
  158.48932k     17.3039   
  162.18101k     17.3038   
  165.95869k     17.3038   
  169.82437k     17.3038   
  173.78008k     17.3038   
  177.82794k     17.3038   
  181.97009k     17.3037   
  186.20871k     17.3037   
  190.54607k     17.3037   
  194.98446k     17.3037   
  199.52623k     17.3036   
  204.17379k     17.3036   
  208.92961k     17.3036   
  213.79621k     17.3035   
  218.77616k     17.3035   
  223.87211k     17.3035   
  229.08677k     17.3034   
  234.42288k     17.3034   
  239.88329k     17.3034   
  245.47089k     17.3033   
  251.18864k     17.3033   
  257.03958k     17.3032   
  263.02680k     17.3032   
  269.15348k     17.3031   
  275.42287k     17.3031   
  281.83829k     17.3030   
  288.40315k     17.3030   
  295.12092k     17.3029   
  301.99517k     17.3028   
  309.02954k     17.3028   
  316.22777k     17.3027   
  323.59366k     17.3026   
  331.13112k     17.3026   
  338.84416k     17.3025   
  346.73685k     17.3024   
  354.81339k     17.3023   
  363.07805k     17.3022   
  371.53523k     17.3021   
  380.18940k     17.3020   
  389.04514k     17.3019   
  398.10717k     17.3018   
  407.38028k     17.3017   
  416.86938k     17.3016   
  426.57952k     17.3014   
  436.51583k     17.3013   
  446.68359k     17.3012   
  457.08819k     17.3010   
  467.73514k     17.3009   
  478.63009k     17.3007   
  489.77882k     17.3006   
  501.18723k     17.3004   
  512.86138k     17.3002   
  524.80746k     17.3000   
  537.03180k     17.2998   
  549.54087k     17.2996   
  562.34133k     17.2994   
  575.43994k     17.2992   
  588.84366k     17.2989   
  602.55959k     17.2987   
  616.59500k     17.2984   
  630.95734k     17.2981   
  645.65423k     17.2978   
  660.69345k     17.2975   
  676.08298k     17.2972   
  691.83097k     17.2969   
  707.94578k     17.2965   
  724.43596k     17.2962   
  741.31024k     17.2958   
  758.57758k     17.2954   
  776.24712k     17.2950   
  794.32823k     17.2945   
  812.83052k     17.2941   
  831.76377k     17.2936   
  851.13804k     17.2931   
  870.96359k     17.2926   
  891.25094k     17.2920   
  912.01084k     17.2915   
  933.25430k     17.2909   
  954.99259k     17.2902   
  977.23722k     17.2896   
    1.00000x     17.2889   
    1.02329x     17.2882   
    1.04713x     17.2874   
    1.07152x     17.2866   
    1.09648x     17.2858   
    1.12202x     17.2849   
    1.14815x     17.2840   
    1.17490x     17.2830   
    1.20226x     17.2820   
    1.23027x     17.2810   
    1.25893x     17.2799   
    1.28825x     17.2788   
    1.31826x     17.2776   
    1.34896x     17.2763   
    1.38038x     17.2750   
    1.41254x     17.2736   
    1.44544x     17.2722   
    1.47911x     17.2707   
    1.51356x     17.2691   
    1.54882x     17.2675   
    1.58489x     17.2657   
    1.62181x     17.2639   
    1.65959x     17.2620   
    1.69824x     17.2601   
    1.73780x     17.2580   
    1.77828x     17.2558   
    1.81970x     17.2535   
    1.86209x     17.2512   
    1.90546x     17.2487   
    1.94984x     17.2461   
    1.99526x     17.2434   
    2.04174x     17.2405   
    2.08930x     17.2375   
    2.13796x     17.2344   
    2.18776x     17.2312   
    2.23872x     17.2277   
    2.29087x     17.2242   
    2.34423x     17.2204   
    2.39883x     17.2165   
    2.45471x     17.2124   
    2.51189x     17.2081   
    2.57040x     17.2037   
    2.63027x     17.1990   
    2.69153x     17.1941   
    2.75423x     17.1890   
    2.81838x     17.1836   
    2.88403x     17.1780   
    2.95121x     17.1721   
    3.01995x     17.1660   
    3.09030x     17.1596   
    3.16228x     17.1529   
    3.23594x     17.1459   
    3.31131x     17.1386   
    3.38844x     17.1309   
    3.46737x     17.1229   
    3.54813x     17.1146   
    3.63078x     17.1058   
    3.71535x     17.0967   
    3.80189x     17.0872   
    3.89045x     17.0772   
    3.98107x     17.0668   
    4.07380x     17.0559   
    4.16869x     17.0445   
    4.26580x     17.0327   
    4.36516x     17.0203   
    4.46684x     17.0074   
    4.57088x     16.9939   
    4.67735x     16.9798   
    4.78630x     16.9650   
    4.89779x     16.9497   
    5.01187x     16.9337   
    5.12861x     16.9170   
    5.24807x     16.8996   
    5.37032x     16.8814   
    5.49541x     16.8624   
    5.62341x     16.8427   
    5.75440x     16.8221   
    5.88844x     16.8007   
    6.02560x     16.7783   
    6.16595x     16.7550   
    6.30957x     16.7308   
    6.45654x     16.7056   
    6.60693x     16.6793   
    6.76083x     16.6520   
    6.91831x     16.6235   
    7.07946x     16.5939   
    7.24436x     16.5632   
    7.41310x     16.5312   
    7.58578x     16.4980   
    7.76247x     16.4634   
    7.94328x     16.4276   
    8.12831x     16.3903   
    8.31764x     16.3517   
    8.51138x     16.3116   
    8.70964x     16.2700   
    8.91251x     16.2269   
    9.12011x     16.1822   
    9.33254x     16.1358   
    9.54993x     16.0878   
    9.77237x     16.0382   
   10.00000x     15.9867   
   10.23293x     15.9336   
   10.47129x     15.8786   
   10.71519x     15.8217   
   10.96478x     15.7630   
   11.22018x     15.7023   
   11.48154x     15.6397   
   11.74898x     15.5750   
   12.02264x     15.5084   
   12.30269x     15.4397   
   12.58925x     15.3689   
   12.88250x     15.2960   
   13.18257x     15.2210   
   13.48963x     15.1438   
   13.80384x     15.0644   
   14.12538x     14.9828   
   14.45440x     14.8990   
   14.79108x     14.8130   
   15.13561x     14.7247   
   15.48817x     14.6341   
   15.84893x     14.5413   
   16.21810x     14.4462   
   16.59587x     14.3488   
   16.98244x     14.2491   
   17.37801x     14.1471   
   17.78279x     14.0429   
   18.19701x     13.9364   
   18.62087x     13.8276   
   19.05461x     13.7166   
   19.49845x     13.6033   
   19.95262x     13.4878   
   20.41738x     13.3701   
   20.89296x     13.2502   
   21.37962x     13.1281   
   21.87762x     13.0039   
   22.38721x     12.8776   
   22.90868x     12.7491   
   23.44229x     12.6187   
   23.98833x     12.4862   
   24.54709x     12.3517   
   25.11886x     12.2152   
   25.70396x     12.0768   
   26.30268x     11.9366   
   26.91535x     11.7945   
   27.54229x     11.6506   
   28.18383x     11.5049   
   28.84032x     11.3575   
   29.51209x     11.2083   
   30.19952x     11.0576   
   30.90295x     10.9053   
   31.62278x     10.7514   
   32.35937x     10.5959   
   33.11311x     10.4391   
   33.88442x     10.2807   
   34.67369x     10.1210   
   35.48134x      9.9600   
   36.30781x      9.7977   
   37.15352x      9.6341   
   38.01894x      9.4693   
   38.90451x      9.3034   
   39.81072x      9.1363   
   40.73803x      8.9682   
   41.68694x      8.7990   
   42.65795x      8.6288   
   43.65158x      8.4577   
   44.66836x      8.2856   
   45.70882x      8.1127   
   46.77351x      7.9390   
   47.86301x      7.7645   
   48.97788x      7.5892   
   50.11872x      7.4132   
   51.28614x      7.2365   
   52.48075x      7.0592   
   53.70318x      6.8813   
   54.95409x      6.7028   
   56.23413x      6.5238   
   57.54399x      6.3443   
   58.88437x      6.1644   
   60.25596x      5.9840   
   61.65950x      5.8032   
   63.09573x      5.6221   
   64.56542x      5.4407   
   66.06934x      5.2589   
   67.60830x      5.0769   
   69.18310x      4.8947   
   70.79458x      4.7123   
   72.44360x      4.5298   
   74.13102x      4.3471   
   75.85776x      4.1643   
   77.62471x      3.9815   
   79.43282x      3.7986   
   81.28305x      3.6158   
   83.17638x      3.4329   
   85.11380x      3.2502   
   87.09636x      3.0675   
   89.12509x      2.8850   
   91.20108x      2.7026   
   93.32543x      2.5204   
   95.49926x      2.3385   
   97.72372x      2.1568   
  100.00000x      1.9754   
y

          ***** job concluded
1****** HSPICE -- B-2008.09-SP1 32-BIT (Nov 24 2008) linux ******               
 ******  
 *3.1

  ******  ac analysis tnom=  25.000 temp=  25.000 *****
 ***** operating point status is all       simulation time is     0.     

   *** source        0:vcm              =    3.200E-01 ***

    node    =voltage      node    =voltage      node    =voltage

 +0:vb      = 490.0000m 0:vcm     = 320.0000m 0:vdd     =   1.8000 
 +0:vin+    = 320.0000m 0:vin-    = 320.0000m 0:vout+   =   1.4476 
 +0:vout-   =   1.4476  0:vp      =  24.2014m


 maximum nodal capacitance=   8.146E-13         on node     0:vp              

    nodal  capacitance table 

    node    =    cap      node    =    cap      node    =    cap

 +0:vb      =  36.3300f 0:vcm     =   0.      0:vdd     =   0.     
 +0:vin+    = 642.0582f 0:vin-    = 642.0582f 0:vout+   = 100.0539f
 +0:vout-   = 100.0539f 0:vp      = 814.5948f

 

 ****  voltage sources

 subckt                                                         
 element  0:vdd      0:vcm      0:vin+     0:vin-     0:vb      
  volts      1.8000   320.0000m    0.         0.       490.0000m
  current   -7.0482u    0.         0.         0.         0.     
  power     12.6868u    0.         0.         0.         0.     

     total voltage source power dissipation=   12.6868u       watts



 **** resistors

 subckt                        
 element  0:r1       0:r0      
  r value  100.0000k  100.0000k
  v drop   352.4120m  352.4120m
  current    3.5241u    3.5241u
  power      1.2419u    1.2419u



 **** mosfets


 subckt                                   
 element  0:m3       0:m2       0:m1      
 model    0:n_18.1   0:n_18.1   0:n_18.1  
 region       Linear     Cutoff     Cutoff
  id         7.0482u    3.5241u    3.5241u
  ibs     -1.141e-21 -145.1235a -145.1235a
  ibd      -18.8275a   -8.6804f   -8.6804f
  vgs      490.0000m  295.7986m  295.7986m
  vds       24.2014m    1.4234     1.4234 
  vbs        0.       -24.2014m  -24.2014m
  vth      449.2177m  338.0478m  338.0478m
  vdsat     89.4395m   47.4681m   47.4681m
  vod       40.7823m  -42.2492m  -42.2492m
  beta       6.4802m    9.0139m    9.0139m
  gam eff  507.4460m  508.1198m  508.1198m
  gm        95.7786u   86.8694u   86.8694u
  gds      243.4101u  561.0698n  561.0698n
  gmb       19.2351u   17.7087u   17.7087u
  cdtot     27.7713f  100.0539f  100.0539f
  cgtot     36.3300f  642.0582f  642.0582f
  cstot     39.8894f  393.4117f  393.4117f
  cbtot     31.6454f  553.9742f  553.9742f
  cgs       24.8871f  267.8664f  267.8664f
  cgd        8.5419f   31.8087f   31.8087f



 ******  
 *3.1

  ******  ac analysis tnom=  25.000 temp=  25.000 *****
x

        freq    volt db    
                   vout+   
                   vout-   
   10.00000m     18.3032   
   10.23293m     18.3032   
   10.47129m     18.3032   
   10.71519m     18.3032   
   10.96478m     18.3032   
   11.22018m     18.3032   
   11.48154m     18.3032   
   11.74898m     18.3032   
   12.02264m     18.3032   
   12.30269m     18.3032   
   12.58925m     18.3032   
   12.88250m     18.3032   
   13.18257m     18.3032   
   13.48963m     18.3032   
   13.80384m     18.3032   
   14.12538m     18.3032   
   14.45440m     18.3032   
   14.79108m     18.3032   
   15.13561m     18.3032   
   15.48817m     18.3032   
   15.84893m     18.3032   
   16.21810m     18.3032   
   16.59587m     18.3032   
   16.98244m     18.3032   
   17.37801m     18.3032   
   17.78279m     18.3032   
   18.19701m     18.3032   
   18.62087m     18.3032   
   19.05461m     18.3032   
   19.49845m     18.3032   
   19.95262m     18.3032   
   20.41738m     18.3032   
   20.89296m     18.3032   
   21.37962m     18.3032   
   21.87762m     18.3032   
   22.38721m     18.3032   
   22.90868m     18.3032   
   23.44229m     18.3032   
   23.98833m     18.3032   
   24.54709m     18.3032   
   25.11886m     18.3032   
   25.70396m     18.3032   
   26.30268m     18.3032   
   26.91535m     18.3032   
   27.54229m     18.3032   
   28.18383m     18.3032   
   28.84032m     18.3032   
   29.51209m     18.3032   
   30.19952m     18.3032   
   30.90295m     18.3032   
   31.62278m     18.3032   
   32.35937m     18.3032   
   33.11311m     18.3032   
   33.88442m     18.3032   
   34.67369m     18.3032   
   35.48134m     18.3032   
   36.30781m     18.3032   
   37.15352m     18.3032   
   38.01894m     18.3032   
   38.90451m     18.3032   
   39.81072m     18.3032   
   40.73803m     18.3032   
   41.68694m     18.3032   
   42.65795m     18.3032   
   43.65158m     18.3032   
   44.66836m     18.3032   
   45.70882m     18.3032   
   46.77351m     18.3032   
   47.86301m     18.3032   
   48.97788m     18.3032   
   50.11872m     18.3032   
   51.28614m     18.3032   
   52.48075m     18.3032   
   53.70318m     18.3032   
   54.95409m     18.3032   
   56.23413m     18.3032   
   57.54399m     18.3032   
   58.88437m     18.3032   
   60.25596m     18.3032   
   61.65950m     18.3032   
   63.09573m     18.3032   
   64.56542m     18.3032   
   66.06934m     18.3032   
   67.60830m     18.3032   
   69.18310m     18.3032   
   70.79458m     18.3032   
   72.44360m     18.3032   
   74.13102m     18.3032   
   75.85776m     18.3032   
   77.62471m     18.3032   
   79.43282m     18.3032   
   81.28305m     18.3032   
   83.17638m     18.3032   
   85.11380m     18.3032   
   87.09636m     18.3032   
   89.12509m     18.3032   
   91.20108m     18.3032   
   93.32543m     18.3032   
   95.49926m     18.3032   
   97.72372m     18.3032   
  100.00000m     18.3032   
  102.32930m     18.3032   
  104.71285m     18.3032   
  107.15193m     18.3032   
  109.64782m     18.3032   
  112.20185m     18.3032   
  114.81536m     18.3032   
  117.48976m     18.3032   
  120.22644m     18.3032   
  123.02688m     18.3032   
  125.89254m     18.3032   
  128.82496m     18.3032   
  131.82567m     18.3032   
  134.89629m     18.3032   
  138.03843m     18.3032   
  141.25375m     18.3032   
  144.54398m     18.3032   
  147.91084m     18.3032   
  151.35612m     18.3032   
  154.88166m     18.3032   
  158.48932m     18.3032   
  162.18101m     18.3032   
  165.95869m     18.3032   
  169.82437m     18.3032   
  173.78008m     18.3032   
  177.82794m     18.3032   
  181.97009m     18.3032   
  186.20871m     18.3032   
  190.54607m     18.3032   
  194.98446m     18.3032   
  199.52623m     18.3032   
  204.17379m     18.3032   
  208.92961m     18.3032   
  213.79621m     18.3032   
  218.77616m     18.3032   
  223.87211m     18.3032   
  229.08677m     18.3032   
  234.42288m     18.3032   
  239.88329m     18.3032   
  245.47089m     18.3032   
  251.18864m     18.3032   
  257.03958m     18.3032   
  263.02680m     18.3032   
  269.15348m     18.3032   
  275.42287m     18.3032   
  281.83829m     18.3032   
  288.40315m     18.3032   
  295.12092m     18.3032   
  301.99517m     18.3032   
  309.02954m     18.3032   
  316.22777m     18.3032   
  323.59366m     18.3032   
  331.13112m     18.3032   
  338.84416m     18.3032   
  346.73685m     18.3032   
  354.81339m     18.3032   
  363.07805m     18.3032   
  371.53523m     18.3032   
  380.18940m     18.3032   
  389.04514m     18.3032   
  398.10717m     18.3032   
  407.38028m     18.3032   
  416.86938m     18.3032   
  426.57952m     18.3032   
  436.51583m     18.3032   
  446.68359m     18.3032   
  457.08819m     18.3032   
  467.73514m     18.3032   
  478.63009m     18.3032   
  489.77882m     18.3032   
  501.18723m     18.3032   
  512.86138m     18.3032   
  524.80746m     18.3032   
  537.03180m     18.3032   
  549.54087m     18.3032   
  562.34133m     18.3032   
  575.43994m     18.3032   
  588.84366m     18.3032   
  602.55959m     18.3032   
  616.59500m     18.3032   
  630.95734m     18.3032   
  645.65423m     18.3032   
  660.69345m     18.3032   
  676.08298m     18.3032   
  691.83097m     18.3032   
  707.94578m     18.3032   
  724.43596m     18.3032   
  741.31024m     18.3032   
  758.57758m     18.3032   
  776.24712m     18.3032   
  794.32823m     18.3032   
  812.83052m     18.3032   
  831.76377m     18.3032   
  851.13804m     18.3032   
  870.96359m     18.3032   
  891.25094m     18.3032   
  912.01084m     18.3032   
  933.25430m     18.3032   
  954.99259m     18.3032   
  977.23722m     18.3032   
    1.00000      18.3032   
    1.02329      18.3032   
    1.04713      18.3032   
    1.07152      18.3032   
    1.09648      18.3032   
    1.12202      18.3032   
    1.14815      18.3032   
    1.17490      18.3032   
    1.20226      18.3032   
    1.23027      18.3032   
    1.25893      18.3032   
    1.28825      18.3032   
    1.31826      18.3032   
    1.34896      18.3032   
    1.38038      18.3032   
    1.41254      18.3032   
    1.44544      18.3032   
    1.47911      18.3032   
    1.51356      18.3032   
    1.54882      18.3032   
    1.58489      18.3032   
    1.62181      18.3032   
    1.65959      18.3032   
    1.69824      18.3032   
    1.73780      18.3032   
    1.77828      18.3032   
    1.81970      18.3032   
    1.86209      18.3032   
    1.90546      18.3032   
    1.94984      18.3032   
    1.99526      18.3032   
    2.04174      18.3032   
    2.08930      18.3032   
    2.13796      18.3032   
    2.18776      18.3032   
    2.23872      18.3032   
    2.29087      18.3032   
    2.34423      18.3032   
    2.39883      18.3032   
    2.45471      18.3032   
    2.51189      18.3032   
    2.57040      18.3032   
    2.63027      18.3032   
    2.69153      18.3032   
    2.75423      18.3032   
    2.81838      18.3032   
    2.88403      18.3032   
    2.95121      18.3032   
    3.01995      18.3032   
    3.09030      18.3032   
    3.16228      18.3032   
    3.23594      18.3032   
    3.31131      18.3032   
    3.38844      18.3032   
    3.46737      18.3032   
    3.54813      18.3032   
    3.63078      18.3032   
    3.71535      18.3032   
    3.80189      18.3032   
    3.89045      18.3032   
    3.98107      18.3032   
    4.07380      18.3032   
    4.16869      18.3032   
    4.26580      18.3032   
    4.36516      18.3032   
    4.46684      18.3032   
    4.57088      18.3032   
    4.67735      18.3032   
    4.78630      18.3032   
    4.89779      18.3032   
    5.01187      18.3032   
    5.12861      18.3032   
    5.24807      18.3032   
    5.37032      18.3032   
    5.49541      18.3032   
    5.62341      18.3032   
    5.75440      18.3032   
    5.88844      18.3032   
    6.02560      18.3032   
    6.16595      18.3032   
    6.30957      18.3032   
    6.45654      18.3032   
    6.60693      18.3032   
    6.76083      18.3032   
    6.91831      18.3032   
    7.07946      18.3032   
    7.24436      18.3032   
    7.41310      18.3032   
    7.58578      18.3032   
    7.76247      18.3032   
    7.94328      18.3032   
    8.12831      18.3032   
    8.31764      18.3032   
    8.51138      18.3032   
    8.70964      18.3032   
    8.91251      18.3032   
    9.12011      18.3032   
    9.33254      18.3032   
    9.54993      18.3032   
    9.77237      18.3032   
   10.00000      18.3032   
   10.23293      18.3032   
   10.47129      18.3032   
   10.71519      18.3032   
   10.96478      18.3032   
   11.22018      18.3032   
   11.48154      18.3032   
   11.74898      18.3032   
   12.02264      18.3032   
   12.30269      18.3032   
   12.58925      18.3032   
   12.88250      18.3032   
   13.18257      18.3032   
   13.48963      18.3032   
   13.80384      18.3032   
   14.12538      18.3032   
   14.45440      18.3032   
   14.79108      18.3032   
   15.13561      18.3032   
   15.48817      18.3032   
   15.84893      18.3032   
   16.21810      18.3032   
   16.59587      18.3032   
   16.98244      18.3032   
   17.37801      18.3032   
   17.78279      18.3032   
   18.19701      18.3032   
   18.62087      18.3032   
   19.05461      18.3032   
   19.49845      18.3032   
   19.95262      18.3032   
   20.41738      18.3032   
   20.89296      18.3032   
   21.37962      18.3032   
   21.87762      18.3032   
   22.38721      18.3032   
   22.90868      18.3032   
   23.44229      18.3032   
   23.98833      18.3032   
   24.54709      18.3032   
   25.11886      18.3032   
   25.70396      18.3032   
   26.30268      18.3032   
   26.91535      18.3032   
   27.54229      18.3032   
   28.18383      18.3032   
   28.84032      18.3032   
   29.51209      18.3032   
   30.19952      18.3032   
   30.90295      18.3032   
   31.62278      18.3032   
   32.35937      18.3032   
   33.11311      18.3032   
   33.88442      18.3032   
   34.67369      18.3032   
   35.48134      18.3032   
   36.30781      18.3032   
   37.15352      18.3032   
   38.01894      18.3032   
   38.90451      18.3032   
   39.81072      18.3032   
   40.73803      18.3032   
   41.68694      18.3032   
   42.65795      18.3032   
   43.65158      18.3032   
   44.66836      18.3032   
   45.70882      18.3032   
   46.77351      18.3032   
   47.86301      18.3032   
   48.97788      18.3032   
   50.11872      18.3032   
   51.28614      18.3032   
   52.48075      18.3032   
   53.70318      18.3032   
   54.95409      18.3032   
   56.23413      18.3032   
   57.54399      18.3032   
   58.88437      18.3032   
   60.25596      18.3032   
   61.65950      18.3032   
   63.09573      18.3032   
   64.56542      18.3032   
   66.06934      18.3032   
   67.60830      18.3032   
   69.18310      18.3032   
   70.79458      18.3032   
   72.44360      18.3032   
   74.13102      18.3032   
   75.85776      18.3032   
   77.62471      18.3032   
   79.43282      18.3032   
   81.28305      18.3032   
   83.17638      18.3032   
   85.11380      18.3032   
   87.09636      18.3032   
   89.12509      18.3032   
   91.20108      18.3032   
   93.32543      18.3032   
   95.49926      18.3032   
   97.72372      18.3032   
  100.00000      18.3032   
  102.32930      18.3032   
  104.71285      18.3032   
  107.15193      18.3032   
  109.64782      18.3032   
  112.20185      18.3032   
  114.81536      18.3032   
  117.48976      18.3032   
  120.22644      18.3032   
[...]
   31.62278     -37.5624   
   32.35937     -37.5624   
   33.11311     -37.5624   
   33.88442     -37.5624   
   34.67369     -37.5624   
   35.48134     -37.5624   
   36.30781     -37.5624   
   37.15352     -37.5624   
   38.01894     -37.5624   
   38.90451     -37.5624   
   39.81072     -37.5624   
   40.73803     -37.5624   
   41.68694     -37.5624   
   42.65795     -37.5624   
   43.65158     -37.5624   
   44.66836     -37.5624   
   45.70882     -37.5624   
   46.77351     -37.5624   
   47.86301     -37.5624   
   48.97788     -37.5624   
   50.11872     -37.5624   
   51.28614     -37.5624   
   52.48075     -37.5624   
   53.70318     -37.5624   
   54.95409     -37.5624   
   56.23413     -37.5624   
   57.54399     -37.5624   
   58.88437     -37.5624   
   60.25596     -37.5624   
   61.65950     -37.5624   
   63.09573     -37.5624   
   64.56542     -37.5624   
   66.06934     -37.5624   
   67.60830     -37.5624   
   69.18310     -37.5624   
   70.79458     -37.5624   
   72.44360     -37.5624   
   74.13102     -37.5624   
   75.85776     -37.5624   
   77.62471     -37.5624   
   79.43282     -37.5624   
   81.28305     -37.5624   
   83.17638     -37.5624   
   85.11380     -37.5624   
   87.09636     -37.5624   
   89.12509     -37.5624   
   91.20108     -37.5624   
   93.32543     -37.5624   
   95.49926     -37.5624   
   97.72372     -37.5624   
  100.00000     -37.5624   
  102.32930     -37.5624   
  104.71285     -37.5624   
  107.15193     -37.5624   
  109.64782     -37.5624   
  112.20185     -37.5624   
  114.81536     -37.5624   
  117.48976     -37.5624   
  120.22644     -37.5624   
  123.02688     -37.5624   
  125.89254     -37.5624   
  128.82496     -37.5624   
  131.82567     -37.5624   
  134.89629     -37.5624   
  138.03843     -37.5624   
  141.25375     -37.5624   
  144.54398     -37.5624   
  147.91084     -37.5624   
  151.35612     -37.5624   
  154.88166     -37.5624   
  158.48932     -37.5624   
  162.18101     -37.5624   
  165.95869     -37.5624   
  169.82437     -37.5624   
  173.78008     -37.5624   
  177.82794     -37.5624   
  181.97009     -37.5624   
  186.20871     -37.5624   
  190.54607     -37.5624   
  194.98446     -37.5624   
  199.52623     -37.5624   
  204.17379     -37.5624   
  208.92961     -37.5624   
  213.79621     -37.5624   
  218.77616     -37.5624   
  223.87211     -37.5624   
  229.08677     -37.5624   
  234.42288     -37.5624   
  239.88329     -37.5624   
  245.47089     -37.5624   
  251.18864     -37.5624   
  257.03958     -37.5624   
  263.02680     -37.5624   
  269.15348     -37.5624   
  275.42287     -37.5624   
  281.83829     -37.5624   
  288.40315     -37.5624   
  295.12092     -37.5624   
  301.99517     -37.5624   
  309.02954     -37.5624   
  316.22777     -37.5624   
  323.59366     -37.5624   
  331.13112     -37.5624   
  338.84416     -37.5624   
  346.73685     -37.5624   
  354.81339     -37.5624   
  363.07805     -37.5624   
  371.53523     -37.5624   
  380.18940     -37.5624   
  389.04514     -37.5624   
  398.10717     -37.5624   
  407.38028     -37.5624   
  416.86938     -37.5624   
  426.57952     -37.5624   
  436.51583     -37.5624   
  446.68359     -37.5624   
  457.08819     -37.5624   
  467.73514     -37.5624   
  478.63009     -37.5624   
  489.77882     -37.5624   
  501.18723     -37.5624   
  512.86138     -37.5624   
  524.80746     -37.5624   
  537.03180     -37.5624   
  549.54087     -37.5624   
  562.34133     -37.5624   
  575.43994     -37.5624   
  588.84366     -37.5624   
  602.55959     -37.5624   
  616.59500     -37.5624   
  630.95734     -37.5624   
  645.65423     -37.5624   
  660.69345     -37.5624   
  676.08298     -37.5624   
  691.83097     -37.5624   
  707.94578     -37.5624   
  724.43596     -37.5624   
  741.31024     -37.5624   
  758.57758     -37.5624   
  776.24712     -37.5624   
  794.32823     -37.5624   
  812.83052     -37.5624   
  831.76377     -37.5624   
  851.13804     -37.5624   
  870.96359     -37.5624   
  891.25094     -37.5624   
  912.01084     -37.5624   
  933.25430     -37.5624   
  954.99259     -37.5624   
  977.23722     -37.5624   
    1.00000k    -37.5624   
    1.02329k    -37.5624   
    1.04713k    -37.5624   
    1.07152k    -37.5624   
    1.09648k    -37.5624   
    1.12202k    -37.5624   
    1.14815k    -37.5624   
    1.17490k    -37.5624   
    1.20226k    -37.5624   
    1.23027k    -37.5624   
    1.25893k    -37.5624   
    1.28825k    -37.5624   
    1.31826k    -37.5624   
    1.34896k    -37.5624   
    1.38038k    -37.5624   
    1.41254k    -37.5624   
    1.44544k    -37.5624   
    1.47911k    -37.5624   
    1.51356k    -37.5624   
    1.54882k    -37.5624   
    1.58489k    -37.5624   
    1.62181k    -37.5624   
    1.65959k    -37.5624   
    1.69824k    -37.5624   
    1.73780k    -37.5624   
    1.77828k    -37.5624   
    1.81970k    -37.5624   
    1.86209k    -37.5624   
    1.90546k    -37.5624   
    1.94984k    -37.5624   
    1.99526k    -37.5624   
    2.04174k    -37.5624   
    2.08930k    -37.5624   
    2.13796k    -37.5624   
    2.18776k    -37.5624   
    2.23872k    -37.5624   
    2.29087k    -37.5624   
    2.34423k    -37.5624   
    2.39883k    -37.5624   
    2.45471k    -37.5624   
    2.51189k    -37.5624   
    2.57040k    -37.5624   
    2.63027k    -37.5624   
    2.69153k    -37.5624   
    2.75423k    -37.5624   
    2.81838k    -37.5624   
    2.88403k    -37.5624   
    2.95121k    -37.5624   
    3.01995k    -37.5624   
    3.09030k    -37.5624   
    3.16228k    -37.5624   
    3.23594k    -37.5624   
    3.31131k    -37.5624   
    3.38844k    -37.5624   
    3.46737k    -37.5624   
    3.54813k    -37.5624   
    3.63078k    -37.5624   
    3.71535k    -37.5624   
    3.80189k    -37.5624   
    3.89045k    -37.5624   
    3.98107k    -37.5624   
    4.07380k    -37.5624   
    4.16869k    -37.5624   
    4.26580k    -37.5624   
    4.36516k    -37.5624   
    4.46684k    -37.5624   
    4.57088k    -37.5624   
    4.67735k    -37.5624   
    4.78630k    -37.5624   
    4.89779k    -37.5624   
    5.01187k    -37.5624   
    5.12861k    -37.5624   
    5.24807k    -37.5624   
    5.37032k    -37.5624   
    5.49541k    -37.5624   
    5.62341k    -37.5624   
    5.75440k    -37.5624   
    5.88844k    -37.5624   
    6.02560k    -37.5624   
    6.16595k    -37.5624   
    6.30957k    -37.5624   
    6.45654k    -37.5624   
    6.60693k    -37.5624   
    6.76083k    -37.5624   
    6.91831k    -37.5624   
    7.07946k    -37.5624   
    7.24436k    -37.5624   
    7.41310k    -37.5624   
    7.58578k    -37.5624   
    7.76247k    -37.5624   
    7.94328k    -37.5624   
    8.12831k    -37.5624   
    8.31764k    -37.5624   
    8.51138k    -37.5624   
    8.70964k    -37.5624   
    8.91251k    -37.5624   
    9.12011k    -37.5624   
    9.33254k    -37.5624   
    9.54993k    -37.5624   
    9.77237k    -37.5624   
   10.00000k    -37.5624   
   10.23293k    -37.5624   
   10.47129k    -37.5624   
   10.71519k    -37.5624   
   10.96478k    -37.5624   
   11.22018k    -37.5624   
   11.48154k    -37.5624   
   11.74898k    -37.5624   
   12.02264k    -37.5624   
   12.30269k    -37.5624   
   12.58925k    -37.5624   
   12.88250k    -37.5624   
   13.18257k    -37.5624   
   13.48963k    -37.5624   
   13.80384k    -37.5624   
   14.12538k    -37.5624   
   14.45440k    -37.5624   
   14.79108k    -37.5624   
   15.13561k    -37.5624   
   15.48817k    -37.5624   
   15.84893k    -37.5624   
   16.21810k    -37.5624   
   16.59587k    -37.5624   
   16.98244k    -37.5624   
   17.37801k    -37.5624   
   17.78279k    -37.5624   
   18.19701k    -37.5624   
   18.62087k    -37.5624   
   19.05461k    -37.5624   
   19.49845k    -37.5624   
   19.95262k    -37.5624   
   20.41738k    -37.5624   
   20.89296k    -37.5624   
   21.37962k    -37.5624   
   21.87762k    -37.5624   
   22.38721k    -37.5624   
   22.90868k    -37.5624   
   23.44229k    -37.5624   
   23.98833k    -37.5624   
   24.54709k    -37.5624   
   25.11886k    -37.5624   
   25.70396k    -37.5624   
   26.30268k    -37.5623   
   26.91535k    -37.5623   
   27.54229k    -37.5623   
   28.18383k    -37.5623   
   28.84032k    -37.5623   
   29.51209k    -37.5623   
   30.19952k    -37.5623   
   30.90295k    -37.5623   
   31.62278k    -37.5623   
   32.35937k    -37.5623   
   33.11311k    -37.5623   
   33.88442k    -37.5623   
   34.67369k    -37.5623   
   35.48134k    -37.5623   
   36.30781k    -37.5623   
   37.15352k    -37.5623   
   38.01894k    -37.5623   
   38.90451k    -37.5622   
   39.81072k    -37.5622   
   40.73803k    -37.5622   
   41.68694k    -37.5622   
   42.65795k    -37.5622   
   43.65158k    -37.5622   
   44.66836k    -37.5622   
   45.70882k    -37.5622   
   46.77351k    -37.5622   
   47.86301k    -37.5621   
   48.97788k    -37.5621   
   50.11872k    -37.5621   
   51.28614k    -37.5621   
   52.48075k    -37.5621   
   53.70318k    -37.5621   
   54.95409k    -37.5621   
   56.23413k    -37.5620   
   57.54399k    -37.5620   
   58.88437k    -37.5620   
   60.25596k    -37.5620   
   61.65950k    -37.5620   
   63.09573k    -37.5619   
   64.56542k    -37.5619   
   66.06934k    -37.5619   
   67.60830k    -37.5619   
   69.18310k    -37.5618   
   70.79458k    -37.5618   
   72.44360k    -37.5618   
   74.13102k    -37.5617   
   75.85776k    -37.5617   
   77.62471k    -37.5617   
   79.43282k    -37.5616   
   81.28305k    -37.5616   
   83.17638k    -37.5616   
   85.11380k    -37.5615   
   87.09636k    -37.5615   
   89.12509k    -37.5614   
   91.20108k    -37.5614   
   93.32543k    -37.5613   
   95.49926k    -37.5613   
   97.72372k    -37.5612   
  100.00000k    -37.5612   
  102.32930k    -37.5611   
  104.71285k    -37.5610   
  107.15193k    -37.5610   
  109.64782k    -37.5609   
  112.20185k    -37.5608   
  114.81536k    -37.5608   
  117.48976k    -37.5607   
  120.22644k    -37.5606   
  123.02688k    -37.5605   
  125.89254k    -37.5604   
  128.82496k    -37.5603   
  131.82567k    -37.5602   
  134.89629k    -37.5601   
  138.03843k    -37.5600   
  141.25375k    -37.5599   
  144.54398k    -37.5598   
  147.91084k    -37.5597   
  151.35612k    -37.5595   
  154.88166k    -37.5594   
  158.48932k    -37.5593   
  162.18101k    -37.5591   
  165.95869k    -37.5590   
  169.82437k    -37.5588   
  173.78008k    -37.5586   
  177.82794k    -37.5584   
  181.97009k    -37.5582   
  186.20871k    -37.5581   
  190.54607k    -37.5578   
  194.98446k    -37.5576   
  199.52623k    -37.5574   
  204.17379k    -37.5572   
  208.92961k    -37.5569   
  213.79621k    -37.5567   
  218.77616k    -37.5564   
  223.87211k    -37.5561   
  229.08677k    -37.5558   
  234.42288k    -37.5555   
  239.88329k    -37.5552   
  245.47089k    -37.5548   
  251.18864k    -37.5545   
  257.03958k    -37.5541   
  263.02680k    -37.5537   
  269.15348k    -37.5533   
  275.42287k    -37.5528   
  281.83829k    -37.5524   
  288.40315k    -37.5519   
  295.12092k    -37.5514   
  301.99517k    -37.5509   
  309.02954k    -37.5504   
  316.22777k    -37.5498   
  323.59366k    -37.5492   
  331.13112k    -37.5486   
  338.84416k    -37.5479   
  346.73685k    -37.5473   
  354.81339k    -37.5465   
  363.07805k    -37.5458   
  371.53523k    -37.5450   
  380.18940k    -37.5442   
  389.04514k    -37.5433   
  398.10717k    -37.5424   
  407.38028k    -37.5415   
  416.86938k    -37.5405   
  426.57952k    -37.5395   
  436.51583k    -37.5384   
  446.68359k    -37.5373   
  457.08819k    -37.5361   
  467.73514k    -37.5348   
  478.63009k    -37.5335   
  489.77882k    -37.5322   
  501.18723k    -37.5308   
  512.86138k    -37.5293   
  524.80746k    -37.5277   
  537.03180k    -37.5261   
  549.54087k    -37.5244   
  562.34133k    -37.5226   
  575.43994k    -37.5207   
  588.84366k    -37.5188   
  602.55959k    -37.5167   
  616.59500k    -37.5146   
  630.95734k    -37.5124   
  645.65423k    -37.5100   
  660.69345k    -37.5076   
  676.08298k    -37.5050   
  691.83097k    -37.5023   
  707.94578k    -37.4995   
  724.43596k    -37.4965   
  741.31024k    -37.4935   
  758.57758k    -37.4902   
  776.24712k    -37.4869   
  794.32823k    -37.4833   
  812.83052k    -37.4796   
  831.76377k    -37.4758   
  851.13804k    -37.4717   
  870.96359k    -37.4675   
  891.25094k    -37.4631   
  912.01084k    -37.4585   
  933.25430k    -37.4536   
  954.99259k    -37.4486   
  977.23722k    -37.4433   
    1.00000x    -37.4377   
    1.02329x    -37.4319   
    1.04713x    -37.4259   
    1.07152x    -37.4195   
    1.09648x    -37.4129   
    1.12202x    -37.4060   
    1.14815x    -37.3988   
    1.17490x    -37.3912   
    1.20226x    -37.3833   
    1.23027x    -37.3750   
    1.25893x    -37.3664   
    1.28825x    -37.3574   
    1.31826x    -37.3480   
    1.34896x    -37.3381   
    1.38038x    -37.3278   
    1.41254x    -37.3171   
    1.44544x    -37.3058   
    1.47911x    -37.2941   
    1.51356x    -37.2819   
    1.54882x    -37.2691   
    1.58489x    -37.2557   
    1.62181x    -37.2418   
    1.65959x    -37.2273   
    1.69824x    -37.2121   
    1.73780x    -37.1963   
    1.77828x    -37.1797   
    1.81970x    -37.1625   
    1.86209x    -37.1445   
    1.90546x    -37.1258   
    1.94984x    -37.1063   
    1.99526x    -37.0859   
    2.04174x    -37.0647   
    2.08930x    -37.0426   
    2.13796x    -37.0196   
    2.18776x    -36.9956   
    2.23872x    -36.9706   
    2.29087x    -36.9446   
    2.34423x    -36.9176   
    2.39883x    -36.8894   
    2.45471x    -36.8601   
    2.51189x    -36.8297   
    2.57040x    -36.7980   
    2.63027x    -36.7651   
    2.69153x    -36.7309   
    2.75423x    -36.6954   
    2.81838x    -36.6586   
    2.88403x    -36.6203   
    2.95121x    -36.5805   
    3.01995x    -36.5393   
    3.09030x    -36.4966   
    3.16228x    -36.4523   
    3.23594x    -36.4064   
    3.31131x    -36.3588   
    3.38844x    -36.3096   
    3.46737x    -36.2586   
    3.54813x    -36.2058   
    3.63078x    -36.1513   
    3.71535x    -36.0949   
    3.80189x    -36.0366   
    3.89045x    -35.9764   
    3.98107x    -35.9143   
    4.07380x    -35.8501   
    4.16869x    -35.7840   
    4.26580x    -35.7158   
    4.36516x    -35.6455   
    4.46684x    -35.5731   
    4.57088x    -35.4985   
    4.67735x    -35.4218   
    4.78630x    -35.3429   
    4.89779x    -35.2618   
    5.01187x    -35.1785   
    5.12861x    -35.0929   
    5.24807x    -35.0051   
    5.37032x    -34.9150   
    5.49541x    -34.8227   
    5.62341x    -34.7280   
    5.75440x    -34.6311   
    5.88844x    -34.5318   
    6.02560x    -34.4303   
    6.16595x    -34.3264   
    6.30957x    -34.2203   
    6.45654x    -34.1119   
    6.60693x    -34.0013   
    6.76083x    -33.8883   
    6.91831x    -33.7731   
    7.07946x    -33.6557   
    7.24436x    -33.5361   
    7.41310x    -33.4143   
    7.58578x    -33.2903   
    7.76247x    -33.1642   
    7.94328x    -33.0359   
    8.12831x    -32.9056   
    8.31764x    -32.7732   
    8.51138x    -32.6388   
    8.70964x    -32.5024   
    8.91251x    -32.3640   
    9.12011x    -32.2237   
    9.33254x    -32.0815   
    9.54993x    -31.9375   
    9.77237x    -31.7917   
   10.00000x    -31.6440   
   10.23293x    -31.4947   
   10.47129x    -31.3437   
   10.71519x    -31.1910   
   10.96478x    -31.0367   
   11.22018x    -30.8808   
   11.48154x    -30.7234   
   11.74898x    -30.5646   
   12.02264x    -30.4042   
   12.30269x    -30.2425   
   12.58925x    -30.0795   
   12.88250x    -29.9151   
   13.18257x    -29.7494   
   13.48963x    -29.5825   
   13.80384x    -29.4145   
   14.12538x    -29.2452   
   14.45440x    -29.0749   
   14.79108x    -28.9034   
   15.13561x    -28.7310   
   15.48817x    -28.5575   
   15.84893x    -28.3831   
   16.21810x    -28.2078   
   16.59587x    -28.0315   
   16.98244x    -27.8545   
   17.37801x    -27.6765   
   17.78279x    -27.4979   
   18.19701x    -27.3184   
   18.62087x    -27.1383   
   19.05461x    -26.9574   
   19.49845x    -26.7759   
   19.95262x    -26.5938   
   20.41738x    -26.4111   
   20.89296x    -26.2278   
   21.37962x    -26.0440   
   21.87762x    -25.8597   
   22.38721x    -25.6749   
   22.90868x    -25.4896   
   23.44229x    -25.3039   
   23.98833x    -25.1178   
   24.54709x    -24.9314   
   25.11886x    -24.7445   
   25.70396x    -24.5574   
   26.30268x    -24.3699   
   26.91535x    -24.1822   
   27.54229x    -23.9942   
   28.18383x    -23.8060   
   28.84032x    -23.6176   
   29.51209x    -23.4289   
   30.19952x    -23.2401   
   30.90295x    -23.0512   
   31.62278x    -22.8621   
   32.35937x    -22.6730   
   33.11311x    -22.4837   
   33.88442x    -22.2944   
   34.67369x    -22.1050   
   35.48134x    -21.9157   
   36.30781x    -21.7263   
   37.15352x    -21.5369   
   38.01894x    -21.3476   
   38.90451x    -21.1584   
   39.81072x    -20.9692   
   40.73803x    -20.7802   
   41.68694x    -20.5912   
   42.65795x    -20.4024   
   43.65158x    -20.2138   
   44.66836x    -20.0254   
   45.70882x    -19.8372   
   46.77351x    -19.6492   
   47.86301x    -19.4615   
   48.97788x    -19.2740   
   50.11872x    -19.0869   
   51.28614x    -18.9001   
   52.48075x    -18.7137   
   53.70318x    -18.5276   
   54.95409x    -18.3419   
   56.23413x    -18.1567   
   57.54399x    -17.9719   
   58.88437x    -17.7876   
   60.25596x    -17.6038   
   61.65950x    -17.4206   
   63.09573x    -17.2379   
   64.56542x    -17.0558   
   66.06934x    -16.8743   
   67.60830x    -16.6935   
   69.18310x    -16.5134   
   70.79458x    -16.3340   
   72.44360x    -16.1553   
   74.13102x    -15.9775   
   75.85776x    -15.8004   
   77.62471x    -15.6242   
   79.43282x    -15.4490   
   81.28305x    -15.2746   
   83.17638x    -15.1012   
   85.11380x    -14.9288   
   87.09636x    -14.7574   
   89.12509x    -14.5871   
   91.20108x    -14.4179   
   93.32543x    -14.2499   
   95.49926x    -14.0831   
   97.72372x    -13.9175   
  100.00000x    -13.7531   
y
 

          ***** job concluded
1****** HSPICE -- B-2008.09-SP1 32-BIT (Nov 24 2008) linux ******               
 ******  
 *3.1

  ******  job statistics summary tnom=  25.000 temp=  25.000 *****

  ******  HSPICE Threads Information  ******
  Command Line Threads Count:                      0
  Available CPU Count:                             8
  Actual Model Evaluation(Load) Threads Count:     1
  Actual Solver Threads Count:                     1


  ******  Circuit Statistics  ******
  # nodes       =      15  # elements   =      10
  # resistors   =       2  # capacitors =       0  # inductors   =       0
  # mutual_inds =       0  # vccs       =       0  # vcvs        =       0
  # cccs        =       0  # ccvs       =       0  # volt_srcs   =       5
  # curr_srcs   =       0  # diodes     =       0  # bjts        =       0
  # jfets       =       0  # mosfets    =       3  # U elements  =       0
  # T elements  =       0  # W elements =       0  # B elements  =       0
  # S elements  =       0  # P elements =       0  # va device   =       0


  ******  Runtime Statistics (seconds)  ******

  analysis           time    # points   tot. iter  conv.iter
  op point           0.02           1         555
  ac analysis        0.63      121121      121121
  readin             0.02
  errchk             0.00
  setup              0.00
  output             0.23


           total memory used          212  kbytes
           total cpu time            0.89 seconds
           total elapsed time        1.33 seconds
           job started at     11:14:52 05/05/2016
           job ended   at     11:14:53 05/05/2016


 Init: hspice initialization file: /usr/cad/synopsys/hspice/cur/hspice/hspice.ini
 lic: Release hspice token(s) 
