Using: /usr/bin/time -p /usr/cad/synopsys/hspice/cur/hspice/linux/hspice 1e.sp
 ****** HSPICE -- B-2008.09-SP1 32-BIT (Nov 24 2008) linux ******               
  Copyright (C) 2008 Synopsys, Inc. All Rights Reserved.                        
  Unpublished-rights reserved under US copyright laws.
  This program is protected by law and is subject to the 
  terms and conditions of the license agreement from Synopsys.
  Use of this program is your acceptance to be bound by the 
  license agreement. HSPICE is the trademark of Synopsys, Inc.
  Input File: 1e.sp                                                             
 lic:  
 lic: FLEXlm: v8.5b 
 lic: USER:   u102061112           HOSTNAME: ws36 
 lic: HOSTID: e41f1366b708         PID:      14649 
 lic: Using FLEXlm license file: 
 lic: 26585@lsnctu 
 lic: Checkout 1 hspice 
 lic: License/Maintenance for hspice will expire on 14-may-2016/2015.06 
 lic: FLOATING license(s) on SERVER lsnctu 
 lic:   
 Init: read install configuration file: /usr/cad/synopsys/hspice/cur/hspice/meta.cfg
 Init: hspice initialization file: /usr/cad/synopsys/hspice/cur/hspice/hspice.ini
 .option runlvl
 .option post=1 acct captab acout=0

 m3 vp vb gnd gnd n_18 w=10u l=0.5u m=1
 m2 vout+ vin- vp vp n_18 w=84u l=2.8u m=1
 m1 vout- vin+ vp vp n_18 w=84u l=2.8u m=1

 m4 vb vb gnd gnd n_18 w=10u l=0.5u m=1

 r1 vdd vout- 100k 
 r0 vdd vout+ 100k 

 ******source******
 iref vdd vb 20u
 vdd vdd 0 dc=1.8
 vin+ vin+ 0 dc 0.9 ac 0.5 0
 vin- vin- 0 dc 0.9 ac 0.5 180

 ******analysis******
 .op
 .ac dec 100 1 100meg
 .probe vdb(vout+,vout-)
 .print vdb(vout+,vout-)

 .alter
 

 
      
1****** HSPICE -- B-2008.09-SP1 32-BIT (Nov 24 2008) linux ******               
 ******  
 *3.1

  ******  operating point information tnom=  25.000 temp=  25.000 *****
 ***** operating point status is all       simulation time is     0.     
    node    =voltage      node    =voltage      node    =voltage

 +0:vb      = 489.5179m 0:vdd     =   1.8000  0:vin+    = 900.0000m
 +0:vin-    = 900.0000m 0:vout+   = 781.4669m 0:vout-   = 781.4669m
 +0:vp      = 555.3467m


 maximum nodal capacitance=   3.164E-12         on node     0:vp              

    nodal  capacitance table 

    node    =    cap      node    =    cap      node    =    cap

 +0:vb      =  80.6425f 0:vdd     =   0.      0:vin+    =   1.0790p
 +0:vin-    =   1.0790p 0:vout+   = 124.8221f 0:vout-   = 124.8221f
 +0:vp      =   3.1642p

 

 ****  voltage sources

 subckt                                   
 element  0:vdd      0:vin+     0:vin-    
  volts      1.8000   900.0000m  900.0000m
  current  -40.3707u    0.         0.     
  power     72.6672u    0.         0.     

     total voltage source power dissipation=   72.6672u       watts



 ***** current sources

 subckt             
 element  0:iref    
  volts      1.3105 
  current   20.0000u
  power    -26.2096u


     total current source power dissipation= -26.2096u       watts

 **** resistors

 subckt                        
 element  0:r1       0:r0      
  r value  100.0000k  100.0000k
  v drop     1.0185     1.0185 
  current   10.1853u   10.1853u
  power     10.3741u   10.3741u



 **** mosfets


 subckt                                              
 element  0:m3       0:m2       0:m1       0:m4      
 model    0:n_18.1   0:n_18.1   0:n_18.1   0:n_18.1  
 region     Saturati   Saturati   Saturati   Saturati
  id        20.3707u   10.1853u   10.1853u   20.0000u
  ibs     -3.296e-21 -1.512e-21 -1.512e-21 -3.236e-21
  ibd     -432.0564a   -1.3559f   -1.3559f -380.8417a
  vgs      489.5179m  344.6533m  344.6533m  489.5179m
  vds      555.3467m  226.1202m  226.1202m  489.5179m
  vbs        0.         0.         0.         0.     
  vth      442.3450m  337.8979m  337.8979m  443.1969m
  vdsat     92.9683m   62.2096m   62.2096m   92.4909m
  vod       47.1729m    6.7554m    6.7554m   46.3211m
  beta       6.4794m    9.0260m    9.0260m    6.4795m
  gam eff  507.4460m  507.4459m  507.4459m  507.4460m
  gm       356.8208u  219.0937u  219.0937u  351.4938u
  gds        5.5620u    1.8475u    1.8475u    5.7117u
  gmb       69.5009u   45.8765u   45.8765u   68.5718u
  cdtot     13.6666f  124.8221f  124.8221f   13.8497f
  cgtot     33.4384f    1.0790p    1.0790p   33.3544f
  cstot     40.3491f  988.5294f  988.5294f   40.2318f
  cbtot     29.2338f  586.7440f  586.7440f   29.4112f
  cgs       26.2662f  805.4044f  805.4044f   26.1695f
  cgd        3.6494f   30.9883f   30.9883f    3.6520f



 ******  
 *3.1

  ******  ac analysis tnom=  25.000 temp=  25.000 *****
x

        freq    volt db    
                   vout+   
                   vout-   
    1.00000      25.3400   
    1.02329      25.3400   
    1.04713      25.3400   
    1.07152      25.3400   
    1.09648      25.3400   
    1.12202      25.3400   
    1.14815      25.3400   
    1.17490      25.3400   
    1.20226      25.3400   
    1.23027      25.3400   
    1.25893      25.3400   
    1.28825      25.3400   
    1.31826      25.3400   
    1.34896      25.3400   
    1.38038      25.3400   
    1.41254      25.3400   
    1.44544      25.3400   
    1.47911      25.3400   
    1.51356      25.3400   
    1.54882      25.3400   
    1.58489      25.3400   
    1.62181      25.3400   
    1.65959      25.3400   
    1.69824      25.3400   
    1.73780      25.3400   
    1.77828      25.3400   
    1.81970      25.3400   
    1.86209      25.3400   
    1.90546      25.3400   
    1.94984      25.3400   
    1.99526      25.3400   
    2.04174      25.3400   
    2.08930      25.3400   
    2.13796      25.3400   
    2.18776      25.3400   
    2.23872      25.3400   
    2.29087      25.3400   
    2.34423      25.3400   
    2.39883      25.3400   
    2.45471      25.3400   
    2.51189      25.3400   
    2.57040      25.3400   
    2.63027      25.3400   
    2.69153      25.3400   
    2.75423      25.3400   
    2.81838      25.3400   
    2.88403      25.3400   
    2.95121      25.3400   
    3.01995      25.3400   
    3.09030      25.3400   
    3.16228      25.3400   
    3.23594      25.3400   
    3.31131      25.3400   
    3.38844      25.3400   
    3.46737      25.3400   
    3.54813      25.3400   
    3.63078      25.3400   
    3.71535      25.3400   
    3.80189      25.3400   
    3.89045      25.3400   
    3.98107      25.3400   
    4.07380      25.3400   
    4.16869      25.3400   
    4.26580      25.3400   
    4.36516      25.3400   
    4.46684      25.3400   
    4.57088      25.3400   
    4.67735      25.3400   
    4.78630      25.3400   
    4.89779      25.3400   
    5.01187      25.3400   
    5.12861      25.3400   
    5.24807      25.3400   
    5.37032      25.3400   
    5.49541      25.3400   
    5.62341      25.3400   
    5.75440      25.3400   
    5.88844      25.3400   
    6.02560      25.3400   
    6.16595      25.3400   
    6.30957      25.3400   
    6.45654      25.3400   
    6.60693      25.3400   
    6.76083      25.3400   
    6.91831      25.3400   
    7.07946      25.3400   
    7.24436      25.3400   
    7.41310      25.3400   
    7.58578      25.3400   
    7.76247      25.3400   
    7.94328      25.3400   
    8.12831      25.3400   
    8.31764      25.3400   
    8.51138      25.3400   
    8.70964      25.3400   
    8.91251      25.3400   
    9.12011      25.3400   
    9.33254      25.3400   
    9.54993      25.3400   
    9.77237      25.3400   
   10.00000      25.3400   
   10.23293      25.3400   
   10.47129      25.3400   
   10.71519      25.3400   
   10.96478      25.3400   
   11.22018      25.3400   
   11.48154      25.3400   
   11.74898      25.3400   
   12.02264      25.3400   
   12.30269      25.3400   
   12.58925      25.3400   
   12.88250      25.3400   
   13.18257      25.3400   
   13.48963      25.3400   
   13.80384      25.3400   
   14.12538      25.3400   
   14.45440      25.3400   
   14.79108      25.3400   
   15.13561      25.3400   
   15.48817      25.3400   
   15.84893      25.3400   
   16.21810      25.3400   
   16.59587      25.3400   
   16.98244      25.3400   
   17.37801      25.3400   
   17.78279      25.3400   
   18.19701      25.3400   
   18.62087      25.3400   
   19.05461      25.3400   
   19.49845      25.3400   
   19.95262      25.3400   
   20.41738      25.3400   
   20.89296      25.3400   
   21.37962      25.3400   
   21.87762      25.3400   
   22.38721      25.3400   
   22.90868      25.3400   
   23.44229      25.3400   
   23.98833      25.3400   
   24.54709      25.3400   
   25.11886      25.3400   
   25.70396      25.3400   
   26.30268      25.3400   
   26.91535      25.3400   
   27.54229      25.3400   
   28.18383      25.3400   
   28.84032      25.3400   
   29.51209      25.3400   
   30.19952      25.3400   
   30.90295      25.3400   
   31.62278      25.3400   
   32.35937      25.3400   
   33.11311      25.3400   
   33.88442      25.3400   
   34.67369      25.3400   
   35.48134      25.3400   
   36.30781      25.3400   
   37.15352      25.3400   
   38.01894      25.3400   
   38.90451      25.3400   
   39.81072      25.3400   
   40.73803      25.3400   
   41.68694      25.3400   
   42.65795      25.3400   
   43.65158      25.3400   
   44.66836      25.3400   
   45.70882      25.3400   
   46.77351      25.3400   
   47.86301      25.3400   
   48.97788      25.3400   
   50.11872      25.3400   
   51.28614      25.3400   
   52.48075      25.3400   
   53.70318      25.3400   
   54.95409      25.3400   
   56.23413      25.3400   
   57.54399      25.3400   
   58.88437      25.3400   
   60.25596      25.3400   
   61.65950      25.3400   
   63.09573      25.3400   
   64.56542      25.3400   
   66.06934      25.3400   
   67.60830      25.3400   
   69.18310      25.3400   
   70.79458      25.3400   
   72.44360      25.3400   
   74.13102      25.3400   
   75.85776      25.3400   
   77.62471      25.3400   
   79.43282      25.3400   
   81.28305      25.3400   
   83.17638      25.3400   
   85.11380      25.3400   
   87.09636      25.3400   
   89.12509      25.3400   
   91.20108      25.3400   
   93.32543      25.3400   
   95.49926      25.3400   
   97.72372      25.3400   
  100.00000      25.3400   
  102.32930      25.3400   
  104.71285      25.3400   
  107.15193      25.3400   
  109.64782      25.3400   
  112.20185      25.3400   
  114.81536      25.3400   
  117.48976      25.3400   
  120.22644      25.3400   
  123.02688      25.3400   
  125.89254      25.3400   
  128.82496      25.3400   
  131.82567      25.3400   
  134.89629      25.3400   
  138.03843      25.3400   
  141.25375      25.3400   
  144.54398      25.3400   
  147.91084      25.3400   
  151.35612      25.3400   
  154.88166      25.3400   
  158.48932      25.3400   
  162.18101      25.3400   
  165.95869      25.3400   
  169.82437      25.3400   
  173.78008      25.3400   
  177.82794      25.3400   
  181.97009      25.3400   
  186.20871      25.3400   
  190.54607      25.3400   
  194.98446      25.3400   
  199.52623      25.3400   
  204.17379      25.3400   
  208.92961      25.3400   
  213.79621      25.3400   
  218.77616      25.3400   
  223.87211      25.3400   
  229.08677      25.3400   
  234.42288      25.3400   
  239.88329      25.3400   
  245.47089      25.3400   
  251.18864      25.3400   
  257.03958      25.3400   
  263.02680      25.3400   
  269.15348      25.3400   
  275.42287      25.3400   
  281.83829      25.3400   
  288.40315      25.3400   
  295.12092      25.3400   
  301.99517      25.3400   
  309.02954      25.3400   
  316.22777      25.3400   
  323.59366      25.3400   
  331.13112      25.3400   
  338.84416      25.3400   
  346.73685      25.3400   
  354.81339      25.3400   
  363.07805      25.3400   
  371.53523      25.3400   
  380.18940      25.3400   
  389.04514      25.3400   
  398.10717      25.3400   
  407.38028      25.3400   
  416.86938      25.3400   
  426.57952      25.3400   
  436.51583      25.3400   
  446.68359      25.3400   
  457.08819      25.3400   
  467.73514      25.3400   
  478.63009      25.3400   
  489.77882      25.3400   
  501.18723      25.3400   
  512.86138      25.3400   
  524.80746      25.3400   
  537.03180      25.3400   
  549.54087      25.3400   
  562.34133      25.3400   
  575.43994      25.3400   
  588.84366      25.3400   
  602.55959      25.3400   
  616.59500      25.3400   
  630.95734      25.3400   
  645.65423      25.3400   
  660.69345      25.3400   
  676.08298      25.3400   
  691.83097      25.3400   
  707.94578      25.3400   
  724.43596      25.3400   
  741.31024      25.3400   
  758.57758      25.3400   
  776.24712      25.3400   
  794.32823      25.3400   
  812.83052      25.3400   
  831.76377      25.3400   
  851.13804      25.3400   
  870.96359      25.3400   
  891.25094      25.3400   
  912.01084      25.3400   
  933.25430      25.3400   
  954.99259      25.3400   
  977.23722      25.3400   
    1.00000k     25.3400   
    1.02329k     25.3400   
    1.04713k     25.3400   
    1.07152k     25.3400   
    1.09648k     25.3400   
    1.12202k     25.3400   
    1.14815k     25.3400   
    1.17490k     25.3400   
    1.20226k     25.3400   
    1.23027k     25.3400   
    1.25893k     25.3400   
    1.28825k     25.3400   
    1.31826k     25.3400   
    1.34896k     25.3400   
    1.38038k     25.3400   
    1.41254k     25.3400   
    1.44544k     25.3400   
    1.47911k     25.3400   
    1.51356k     25.3400   
    1.54882k     25.3400   
    1.58489k     25.3400   
    1.62181k     25.3400   
    1.65959k     25.3400   
    1.69824k     25.3400   
    1.73780k     25.3400   
    1.77828k     25.3400   
    1.81970k     25.3400   
    1.86209k     25.3400   
    1.90546k     25.3400   
    1.94984k     25.3400   
    1.99526k     25.3400   
    2.04174k     25.3400   
    2.08930k     25.3400   
    2.13796k     25.3400   
    2.18776k     25.3400   
    2.23872k     25.3400   
    2.29087k     25.3400   
    2.34423k     25.3400   
    2.39883k     25.3400   
    2.45471k     25.3400   
    2.51189k     25.3400   
    2.57040k     25.3400   
    2.63027k     25.3400   
    2.69153k     25.3400   
    2.75423k     25.3400   
    2.81838k     25.3400   
    2.88403k     25.3400   
    2.95121k     25.3400   
    3.01995k     25.3400   
    3.09030k     25.3400   
    3.16228k     25.3400   
    3.23594k     25.3400   
    3.31131k     25.3400   
    3.38844k     25.3400   
    3.46737k     25.3400   
    3.54813k     25.3400   
    3.63078k     25.3400   
    3.71535k     25.3400   
    3.80189k     25.3400   
    3.89045k     25.3400   
    3.98107k     25.3400   
    4.07380k     25.3400   
    4.16869k     25.3400   
    4.26580k     25.3400   
    4.36516k     25.3400   
    4.46684k     25.3400   
    4.57088k     25.3400   
    4.67735k     25.3400   
    4.78630k     25.3400   
    4.89779k     25.3400   
    5.01187k     25.3400   
    5.12861k     25.3400   
    5.24807k     25.3400   
    5.37032k     25.3400   
    5.49541k     25.3400   
    5.62341k     25.3400   
    5.75440k     25.3400   
    5.88844k     25.3400   
    6.02560k     25.3400   
    6.16595k     25.3400   
    6.30957k     25.3400   
    6.45654k     25.3400   
    6.60693k     25.3400   
    6.76083k     25.3400   
    6.91831k     25.3400   
    7.07946k     25.3400   
    7.24436k     25.3400   
    7.41310k     25.3400   
    7.58578k     25.3400   
    7.76247k     25.3400   
    7.94328k     25.3400   
    8.12831k     25.3400   
    8.31764k     25.3400   
    8.51138k     25.3400   
    8.70964k     25.3400   
    8.91251k     25.3400   
    9.12011k     25.3400   
    9.33254k     25.3400   
    9.54993k     25.3400   
    9.77237k     25.3400   
   10.00000k     25.3400   
   10.23293k     25.3400   
   10.47129k     25.3400   
   10.71519k     25.3400   
   10.96478k     25.3400   
   11.22018k     25.3400   
   11.48154k     25.3400   
   11.74898k     25.3400   
   12.02264k     25.3400   
   12.30269k     25.3400   
   12.58925k     25.3400   
   12.88250k     25.3400   
   13.18257k     25.3400   
   13.48963k     25.3400   
   13.80384k     25.3400   
   14.12538k     25.3400   
   14.45440k     25.3400   
   14.79108k     25.3400   
   15.13561k     25.3400   
   15.48817k     25.3400   
   15.84893k     25.3400   
   16.21810k     25.3400   
   16.59587k     25.3400   
   16.98244k     25.3400   
   17.37801k     25.3400   
   17.78279k     25.3400   
   18.19701k     25.3400   
   18.62087k     25.3400   
   19.05461k     25.3400   
   19.49845k     25.3400   
   19.95262k     25.3400   
   20.41738k     25.3400   
   20.89296k     25.3400   
   21.37962k     25.3400   
   21.87762k     25.3400   
   22.38721k     25.3400   
   22.90868k     25.3400   
   23.44229k     25.3400   
   23.98833k     25.3400   
   24.54709k     25.3400   
   25.11886k     25.3400   
   25.70396k     25.3400   
   26.30268k     25.3400   
   26.91535k     25.3400   
   27.54229k     25.3400   
   28.18383k     25.3400   
   28.84032k     25.3400   
   29.51209k     25.3400   
   30.19952k     25.3400   
   30.90295k     25.3400   
   31.62278k     25.3400   
   32.35937k     25.3400   
   33.11311k     25.3400   
   33.88442k     25.3400   
   34.67369k     25.3400   
   35.48134k     25.3400   
   36.30781k     25.3400   
   37.15352k     25.3400   
   38.01894k     25.3400   
   38.90451k     25.3400   
   39.81072k     25.3400   
   40.73803k     25.3400   
   41.68694k     25.3400   
   42.65795k     25.3400   
   43.65158k     25.3400   
   44.66836k     25.3400   
   45.70882k     25.3400   
   46.77351k     25.3400   
   47.86301k     25.3400   
   48.97788k     25.3400   
   50.11872k     25.3399   
   51.28614k     25.3399   
   52.48075k     25.3399   
   53.70318k     25.3399   
   54.95409k     25.3399   
   56.23413k     25.3399   
   57.54399k     25.3399   
   58.88437k     25.3399   
   60.25596k     25.3399   
   61.65950k     25.3399   
   63.09573k     25.3399   
   64.56542k     25.3399   
   66.06934k     25.3399   
   67.60830k     25.3399   
   69.18310k     25.3399   
   70.79458k     25.3399   
   72.44360k     25.3399   
   74.13102k     25.3399   
   75.85776k     25.3399   
   77.62471k     25.3399   
   79.43282k     25.3399   
   81.28305k     25.3399   
   83.17638k     25.3399   
   85.11380k     25.3399   
   87.09636k     25.3399   
   89.12509k     25.3398   
   91.20108k     25.3398   
   93.32543k     25.3398   
   95.49926k     25.3398   
   97.72372k     25.3398   
  100.00000k     25.3398   
  102.32930k     25.3398   
  104.71285k     25.3398   
  107.15193k     25.3398   
  109.64782k     25.3398   
  112.20185k     25.3398   
  114.81536k     25.3397   
  117.48976k     25.3397   
  120.22644k     25.3397   
  123.02688k     25.3397   
  125.89254k     25.3397   
  128.82496k     25.3397   
  131.82567k     25.3397   
  134.89629k     25.3396   
  138.03843k     25.3396   
  141.25375k     25.3396   
  144.54398k     25.3396   
  147.91084k     25.3396   
  151.35612k     25.3396   
  154.88166k     25.3395   
  158.48932k     25.3395   
  162.18101k     25.3395   
  165.95869k     25.3395   
  169.82437k     25.3394   
  173.78008k     25.3394   
  177.82794k     25.3394   
  181.97009k     25.3394   
  186.20871k     25.3393   
  190.54607k     25.3393   
  194.98446k     25.3393   
  199.52623k     25.3392   
  204.17379k     25.3392   
  208.92961k     25.3392   
  213.79621k     25.3391   
  218.77616k     25.3391   
  223.87211k     25.3390   
  229.08677k     25.3390   
  234.42288k     25.3390   
  239.88329k     25.3389   
  245.47089k     25.3389   
  251.18864k     25.3388   
  257.03958k     25.3387   
  263.02680k     25.3387   
  269.15348k     25.3386   
  275.42287k     25.3386   
  281.83829k     25.3385   
  288.40315k     25.3384   
  295.12092k     25.3383   
  301.99517k     25.3383   
  309.02954k     25.3382   
  316.22777k     25.3381   
  323.59366k     25.3380   
  331.13112k     25.3379   
  338.84416k     25.3378   
  346.73685k     25.3377   
  354.81339k     25.3376   
  363.07805k     25.3375   
  371.53523k     25.3374   
  380.18940k     25.3372   
  389.04514k     25.3371   
  398.10717k     25.3370   
  407.38028k     25.3368   
  416.86938k     25.3367   
  426.57952k     25.3365   
  436.51583k     25.3364   
  446.68359k     25.3362   
  457.08819k     25.3360   
  467.73514k     25.3358   
  478.63009k     25.3356   
  489.77882k     25.3354   
  501.18723k     25.3352   
  512.86138k     25.3350   
  524.80746k     25.3348   
  537.03180k     25.3345   
  549.54087k     25.3343   
  562.34133k     25.3340   
  575.43994k     25.3337   
  588.84366k     25.3334   
  602.55959k     25.3331   
  616.59500k     25.3328   
  630.95734k     25.3324   
  645.65423k     25.3321   
  660.69345k     25.3317   
  676.08298k     25.3313   
  691.83097k     25.3309   
  707.94578k     25.3305   
  724.43596k     25.3300   
  741.31024k     25.3296   
  758.57758k     25.3291   
  776.24712k     25.3285   
  794.32823k     25.3280   
  812.83052k     25.3274   
  831.76377k     25.3269   
  851.13804k     25.3262   
  870.96359k     25.3256   
  891.25094k     25.3249   
  912.01084k     25.3242   
  933.25430k     25.3235   
  954.99259k     25.3227   
  977.23722k     25.3219   
    1.00000x     25.3210   
    1.02329x     25.3201   
    1.04713x     25.3192   
    1.07152x     25.3182   
    1.09648x     25.3172   
    1.12202x     25.3161   
    1.14815x     25.3150   
    1.17490x     25.3138   
    1.20226x     25.3126   
    1.23027x     25.3113   
    1.25893x     25.3099   
    1.28825x     25.3085   
    1.31826x     25.3071   
    1.34896x     25.3055   
    1.38038x     25.3039   
    1.41254x     25.3022   
    1.44544x     25.3004   
    1.47911x     25.2986   
    1.51356x     25.2966   
    1.54882x     25.2946   
    1.58489x     25.2925   
    1.62181x     25.2902   
    1.65959x     25.2879   
    1.69824x     25.2855   
    1.73780x     25.2829   
    1.77828x     25.2802   
    1.81970x     25.2774   
    1.86209x     25.2745   
    1.90546x     25.2715   
    1.94984x     25.2683   
    1.99526x     25.2649   
    2.04174x     25.2614   
    2.08930x     25.2577   
    2.13796x     25.2539   
    2.18776x     25.2499   
    2.23872x     25.2457   
    2.29087x     25.2413   
    2.34423x     25.2367   
    2.39883x     25.2319   
    2.45471x     25.2268   
    2.51189x     25.2216   
    2.57040x     25.2161   
    2.63027x     25.2103   
    2.69153x     25.2043   
    2.75423x     25.1980   
    2.81838x     25.1914   
    2.88403x     25.1846   
    2.95121x     25.1774   
    3.01995x     25.1699   
    3.09030x     25.1620   
    3.16228x     25.1538   
    3.23594x     25.1452   
    3.31131x     25.1362   
    3.38844x     25.1269   
    3.46737x     25.1171   
    3.54813x     25.1069   
    3.63078x     25.0962   
    3.71535x     25.0850   
    3.80189x     25.0734   
    3.89045x     25.0612   
    3.98107x     25.0485   
    4.07380x     25.0352   
    4.16869x     25.0214   
    4.26580x     25.0069   
    4.36516x     24.9918   
    4.46684x     24.9761   
    4.57088x     24.9597   
    4.67735x     24.9425   
    4.78630x     24.9247   
    4.89779x     24.9060   
    5.01187x     24.8866   
    5.12861x     24.8664   
    5.24807x     24.8453   
    5.37032x     24.8233   
    5.49541x     24.8004   
    5.62341x     24.7766   
    5.75440x     24.7517   
    5.88844x     24.7259   
    6.02560x     24.6990   
    6.16595x     24.6710   
    6.30957x     24.6419   
    6.45654x     24.6116   
    6.60693x     24.5801   
    6.76083x     24.5474   
    6.91831x     24.5133   
    7.07946x     24.4780   
    7.24436x     24.4413   
    7.41310x     24.4032   
    7.58578x     24.3637   
    7.76247x     24.3227   
    7.94328x     24.2802   
    8.12831x     24.2361   
    8.31764x     24.1904   
    8.51138x     24.1430   
    8.70964x     24.0940   
    8.91251x     24.0433   
    9.12011x     23.9908   
    9.33254x     23.9365   
    9.54993x     23.8803   
    9.77237x     23.8223   
   10.00000x     23.7623   
   10.23293x     23.7004   
   10.47129x     23.6366   
   10.71519x     23.5707   
   10.96478x     23.5027   
   11.22018x     23.4327   
   11.48154x     23.3606   
   11.74898x     23.2863   
   12.02264x     23.2099   
   12.30269x     23.1313   
   12.58925x     23.0504   
   12.88250x     22.9674   
   13.18257x     22.8821   
   13.48963x     22.7946   
   13.80384x     22.7047   
   14.12538x     22.6126   
   14.45440x     22.5183   
   14.79108x     22.4216   
   15.13561x     22.3226   
   15.48817x     22.2213   
   15.84893x     22.1177   
   16.21810x     22.0119   
   16.59587x     21.9037   
   16.98244x     21.7932   
   17.37801x     21.6805   
   17.78279x     21.5656   
   18.19701x     21.4484   
   18.62087x     21.3290   
   19.05461x     21.2073   
   19.49845x     21.0835   
   19.95262x     20.9576   
   20.41738x     20.8295   
   20.89296x     20.6993   
   21.37962x     20.5671   
   21.87762x     20.4328   
   22.38721x     20.2965   
   22.90868x     20.1582   
   23.44229x     20.0180   
   23.98833x     19.8759   
   24.54709x     19.7319   
   25.11886x     19.5861   
   25.70396x     19.4385   
   26.30268x     19.2891   
   26.91535x     19.1381   
   27.54229x     18.9854   
   28.18383x     18.8310   
   28.84032x     18.6751   
   29.51209x     18.5176   
   30.19952x     18.3586   
   30.90295x     18.1982   
   31.62278x     18.0363   
   32.35937x     17.8730   
   33.11311x     17.7084   
   33.88442x     17.5425   
   34.67369x     17.3754   
   35.48134x     17.2070   
   36.30781x     17.0375   
   37.15352x     16.8668   
   38.01894x     16.6950   
   38.90451x     16.5221   
   39.81072x     16.3482   
   40.73803x     16.1733   
   41.68694x     15.9974   
   42.65795x     15.8207   
   43.65158x     15.6430   
   44.66836x     15.4645   
   45.70882x     15.2851   
   46.77351x     15.1050   
   47.86301x     14.9241   
   48.97788x     14.7425   
   50.11872x     14.5602   
   51.28614x     14.3772   
   52.48075x     14.1935   
   53.70318x     14.0093   
   54.95409x     13.8244   
   56.23413x     13.6390   
   57.54399x     13.4530   
   58.88437x     13.2666   
   60.25596x     13.0796   
   61.65950x     12.8922   
   63.09573x     12.7043   
   64.56542x     12.5160   
   66.06934x     12.3273   
   67.60830x     12.1382   
   69.18310x     11.9488   
   70.79458x     11.7590   
   72.44360x     11.5689   
   74.13102x     11.3785   
   75.85776x     11.1878   
   77.62471x     10.9968   
   79.43282x     10.8056   
   81.28305x     10.6142   
   83.17638x     10.4225   
   85.11380x     10.2306   
   87.09636x     10.0386   
   89.12509x      9.8464   
   91.20108x      9.6540   
   93.32543x      9.4615   
   95.49926x      9.2689   
   97.72372x      9.0761   
  100.00000x      8.8833   
y

          ***** job concluded
1****** HSPICE -- B-2008.09-SP1 32-BIT (Nov 24 2008) linux ******               
 ******  
 *3.1

  ******  job statistics summary tnom=  25.000 temp=  25.000 *****

  ******  HSPICE Threads Information  ******
  Command Line Threads Count:                      0
  Available CPU Count:                             8
  Actual Model Evaluation(Load) Threads Count:     1
  Actual Solver Threads Count:                     1


  ******  Circuit Statistics  ******
  # nodes       =      16  # elements   =      10
  # resistors   =       2  # capacitors =       0  # inductors   =       0
  # mutual_inds =       0  # vccs       =       0  # vcvs        =       0
  # cccs        =       0  # ccvs       =       0  # volt_srcs   =       3
  # curr_srcs   =       1  # diodes     =       0  # bjts        =       0
  # jfets       =       0  # mosfets    =       4  # U elements  =       0
  # T elements  =       0  # W elements =       0  # B elements  =       0
  # S elements  =       0  # P elements =       0  # va device   =       0


  ******  Runtime Statistics (seconds)  ******

  analysis           time    # points   tot. iter  conv.iter
  op point           0.00           1           7
  ac analysis        0.01         801         801
  readin             0.04
  errchk             0.00
  setup              0.00
  output             0.00


           total memory used          210  kbytes
           total cpu time            0.05 seconds
           total elapsed time        0.22 seconds
           job started at     17:15:34 05/05/2016
           job ended   at     17:15:34 05/05/2016


1****** HSPICE -- B-2008.09-SP1 32-BIT (Nov 24 2008) linux ******               
 ******  
 

  ******    alter processing listing tnom=  25.000 temp=  25.000 *****
 .lib "cic018.l" ff
 .param
 *1.8v nmos 
 +  dtox_n_18      =  -1.2000e-10     	dxl_n_18       =  -1.2600e-08                
 +  dxw_n_18       =   2.2000e-08        dvth0_n_18     =  -1.2500e-02                
 +  du0_n_18       =   1.2000e+01        dlvth0_n_18    =  -7.2000e-04
 +  dwvth0_n_18    =  -1.2100e-02        dwu0_n_18      =   2.2000e+00
 +  dpvth0_n_18    =   6.2000e-04        dpvsat_n_18    =  -8.2000e+01
 +  dcgdo_n_18     =   2.2500e-11        dcgso_n_18     =   2.2500e-11                
 +  dcj_n_18       =  -1.2300e-04        dcjsw_n_18     =  -1.2400e-11                
 +  dcjgate_n_18   =  -5.2000e-11 

 *1.8v pmos 
 +  dtox_p_18      =  -1.5000e-10        du0_p_18       =   3.5000e+00
 +  dxl_p_18       =  -8.5000e-09        dxw_p_18       =   1.5000e-08                
 +  dvth0_p_18     =   1.5000e-02        dlvth0_p_18    =  -1.5000e-03
 +  dwvth0_p_18    =   8.5000e-03
 +  dpvth0_p_18    =   1.5000e-05        dpvsat_p_18    =  -2.5000e+01
 +  dcgdo_p_18     =   2.5540e-11                
 +  dcgso_p_18     =   2.5540e-11        dcj_p_18       =  -1.5400e-04                
 +  dcjsw_p_18     =  -1.5400e-11        dcjgate_p_18   =  -4.5000e-11                

 *1.8v nmos deep_nwell
 +  dtox_n_bpw_18      =  -1.5000e-10    dxl_n_bpw_18       =  -1.3600e-08                
 +  dxw_n_bpw_18       =   2.5000e-08    dvth0_n_bpw_18     =  -1.3500e-02                
 +  du0_n_bpw_18       =   1.5000e+01    dlvth0_n_bpw_18    =  -7.3000e-04
 +  dwvth0_n_bpw_18    =  -1.5100e-02    dwu0_n_bpw_18      =   2.3000e+00
 +  dpvth0_n_bpw_18    =   6.5000e-04    dpvsat_n_bpw_18    =  -8.3000e+01
 +  dcgdo_n_bpw_18     =   2.5500e-11    dcgso_n_bpw_18     =   2.3500e-11                
 +  dcj_n_bpw_18       =  -1.5300e-04    dcjsw_n_bpw_18     =  -1.3400e-11                
 +  dcjgate_n_bpw_18   =  -5.5000e-11 

 *3.3v nmos 
 +dtox_n_33     = -6e-10        	dlint_n_33    = 9.3e-9      	dwint_n_33     = -3e-9
 +dvth0_n_33    = -0.05         	dcgdo_n_33    = 2.7e-11     	dcgso_n_33     = 2.2e-11


 *3.3v pmos
 +dtox_p_33     = -6e-10   	dlint_p_33    = 1.21e-8     	dwint_p_33     = -1e-8 
 +dvth0_p_33    = 0.05	  	dcgdo_p_33    = 2.6e-11     	dcgso_p_33     = 2.7e-11

 *3.3v nmos deep_nwell
 +dtox_n_bpw_33 = -5e-10 	dlint_n_bpw_33 = 9.5e-9  	dwint_n_bpw_33     = -4e-9
 +dvth0_n_bpw_33= -0.06  	dcgdo_n_bpw_33 = 2.7e-11 	dcgso_n_bpw_33     = 2.7e-11

 *1.8v low vth nmos
 +dtox_n_lv_18     = -2.5e-10 	dlint_n_lv_18    = 1.6e-8 	dwint_n_lv_18     = -1e-8 
 +dvth0_n_lv_18    = -0.05   	dcgdo_n_lv_18    = -10*1.2    	dcgso_n_lv_18     = -10*1.2

 *1.8v low vth pmos
 +dtox_p_lv_18     = -2.5e-10 	dlint_p_lv_18    = 0.952e-8 	dwint_p_lv_18     = -1e-8 
 +dvth0_p_lv_18    = 0.05   	dcgdo_p_lv_18    = -10*1.2    	dcgso_p_lv_18     = -10*1.2

 *3.3v low vth nmos
 +dtox_n_lv_33     = -5e-10 	dlint_n_lv_33    = 2.56e-8 	dwint_n_lv_33     = -1e-8 
 +dvth0_n_lv_33    = -0.05   	dcgdo_n_lv_33    = -10*1.2    	dcgso_n_lv_33     = -10*1.2

 *3.3v low vth pmos
 +dtox_p_lv_33     = -5e-10 	dlint_p_lv_33    = 1.68e-8 	dwint_p_lv_33     = -1e-8 
 +dvth0_p_lv_33    = 0.05   	dcgdo_p_lv_33    = -10*1.2    	dcgso_p_lv_33     = -10*1.2

 *1.8v zero vt nmos 
 +dtox_n_zero_18  = -2.6e-10 dlint_n_zero_18  = 4.29e-8 dwint_n_zero_18 = 6.51e-8
 +dvth0_n_zero_18 = -0.22    dcgdo_n_zero_18  = 4.0e-11 dcgso_n_zero_18 = 4.0e-11

 *3.3v zero vt nmos 
 +dtox_n_zero_33  = 5e-10   	dlint_n_zero_33  = -8.34e-8   	dwint_n_zero_33 = 1e-8
 +dvth0_n_zero_33 = 0.05   	dcgdo_n_zero_33  = -10*0.9  	dcgso_n_zero_33 = -10*0.9


 +  drend_rnnpo    =  -7.500e-06               
 +  drs_rnnpo      =  -2.250e+01               
 +  ddw_rnnpo      =   5.000e-08                             
 +  drend_rnppo    =  -2.520e-05               
 +  drs_rnppo      =  -8.000e+01               
 +  ddw_rnppo      =   1.000e-08               
 +  drend_rnhr1000 =  -1.420e-04               
 +  drs_rnhr1000   =  -2.975e+02               
 +  ddw_rnhr1000   =   1.000e-08 

 .lib 'cic018.l' mos_18 
 *.lib './mm180_reg18_v121.lib' tt
 .model n_18.1 nmos
 *****model selectors/controllers*********************************
 +  level     =   4.9000e+01                          version   =   3.2000e+00  
 +  binunit   =   1.0000e+00                          mobmod    =   1.0000e+00                           
 +  capmod    =   2.0000e+00                          nqsmod    =   0.0000e+00                        
 +  noimod    =   1.0000e+00 

 *****process parameters******************************************
 +  tox       =  '4.2000e-09+dtox_n_18'               toxm      =   4.2000e-09                        
 +  xj        =   1.6000e-07                          nch       =   3.7446e+17                        
 +  rsh       =   8.0000e+00                          ngate     =   1.0000e+23


 *****basic model parameters**************************************
 +  vth0      =  '3.0750e-01+dvth0_n_18'           k1        =   4.5780e-01                     
 +  k2        =  -2.6380e-02                          k3        =  -1.0880e+01                        
 +  k3b       =   2.3790e-01                          w0        =  -8.8130e-08                        
 +  nlx       =   4.2790e-07                          dvt0      =   4.0420e-01                        
 +  dvt1      =   3.2370e-01                          dvt2      =  -8.6020e-01                        
 +  dvt0w     =   3.8300e-01                          dvt1w     =   6.0000e+05                        
 +  dvt2w     =  -2.5000e-02                          lint      =   1.5870e-08                        
 +  wint      =   1.0220e-08                          dwg       =  -3.3960e-09                        
 +  dwb       =   1.3460e-09                          u0        =  '3.2410e+02+du0_n_18'                       
 +  ua        =  -9.2010e-10                          ub        =   1.9070e-18
 +  uc        =   4.3550e-11                          vsat      =   7.2580e+04 
 +  a0        =   1.9300e+00                          ags       =   5.0720e-01                        
 +  b0        =   1.4860e-06                          b1        =   9.0640e-06                        
 +  keta      =   1.7520e-02                          a1        =   0.0000e+00                        
 +  a2        =   1.0000e+00                          voff      =  -1.0880e-01                        
 +  nfactor   =   1.0380e+00                          cit       =  -1.5110e-03                        
 +  cdsc      =   2.2750e-03                          cdscd     =  -5.0000e-04                        
 +  cdscb     =   8.2410e-04                          eta0      =   1.0040e-03                        
 +  etab      =  -1.4590e-03                          dsub      =   1.5920e-03                        
 +  pclm      =   1.0910e+00                          pdiblc1   =   3.0610e-03                        
 +  pdiblc2   =   1.0000e-06                          pdiblcb   =   0.0000e+00                        
 +  drout     =   1.5920e-03                          pscbe1    =   4.8660e+08                        
 +  pscbe2    =   2.8000e-07                          pvag      =  -2.9580e-01                        


 *****parameters for asymmetric and bias-dependent rds model******
 +  rdsw      =   4.9050e+00                          prwg      =   0.0000e+00                        
 +  prwb      =   0.0000e+00                          wr        =   1.0000e+00


 *****impact ionization current model parameters******************
 +  alpha0    =   0.0000e+00                          alpha1    =   0.0000e+00                        
 +  beta0     =   3.0000e+01                        


 *****charge and capacitance model parameters*********************
 +  xpart     =   1.0000e+00                          	cgso      =  '2.3500e-10+dcgso_n_18'         
 +  cgdo      =  '2.3500e-10+dcgdo_n_18'           	cgbo      =   0.0000e+00                        
 +  cgsl      =   0.0000e+00                          	cgdl      =   0.0000e+00                        
 +  ckappa    =   6.0000e-01                          	cf        =   1.5330e-10                        
 +  clc       =   1.0000e-07                          	cle       =   6.0000e-01                        
 +  dlc       =   4.0000e-08                          	dwc       =   0.0000e+00                        
 +  vfbcv     =  -1.0000e+00                          	noff      =   1.0000e+00                        
 +  voffcv    =   0.0000e+00                          	acde      =   1.0000e+00                        
 +  moin      =   1.5000e+01                        


 *****flicker and thermal noise model parameters******************
 +  noia      =   1.0000e+20                          	noib      =   5.0000e+04                        
 +  noic      =  -1.4000e-12                          	em        =   4.2000e+07                        
 +  af        =   1.0000e+00                          	ef        =   1.0000e+00                        
 +  kf        =   0.0000e+00                        


 *****layout-dependent parasitics model parameters****************
 +  lmin      =   1.8000e-07                          	lmax      =   5.0000e-05
 +  wmin      =   2.5000e-07                          	wmax      =   1.0000e-04
 +  xl        = '-1.0500e-08+dxl_n_18'             	xw        =  '0.0000e-00+dxw_n_18'           


 *****asymmetric source/drain junction diode model parameters*****
 +  js        =   1.0000e-06                          	jsw       =   7.0000e-11                        
 +  cj        =  '1.0300e-03+dcj_n_18'             	mj        =   4.4300e-01                        
 +  pb        =   8.2300e-01                          	cjsw      =  '1.3400e-10+dcjsw_n_18'         
 +  mjsw      =   3.3000e-01                        


 *****temperature dependence parameters***************************
 +  tnom      =   2.5000e+01                          	ute       =  -1.1860e+00                        
 +  kt1       =  -2.2550e-01                          	kt1l      =  -4.2750e-09                        
 +  kt2       =  -2.5270e-02                          	ua1       =   2.2530e-09                        
 +  ub1       =  -2.6730e-18                          	uc1       =  -3.8320e-11                        
 +  at        =   1.4490e+04                          	prt       =  -1.0180e+01                        
 +  xti       =   3.0000e+00                        


 *****dw and dl parameters****************************************
 +  wl        =   0.0000e+00                          wln       =   1.0000e+00                        
 +  ww        =   7.2620e-16                          wwn       =   1.0000e+00                        
 +  wwl       =   0.0000e+00                          ll        =  -1.0620e-15                        
 +  lln       =   1.0000e+00                          lw        =   2.9960e-15                        
 +  lwn       =   1.0000e+00                          lwl       =   0.0000e+00                        
 +  llc       =  -6.6400e-15                          lwc       =   0.0000e+00                        
 +  lwlc      =   0.0000e+00                          wlc       =   0.0000e+00                        
 +  wwc       =   0.0000e+00                          wwlc      =   0.0000e+00                        


 *****other parameters********************************************
 +  lvth0     = '-1.0000e-03+dlvth0_n_18'          	wvth0     =  '6.027e-02+dwvth0_n_18'
 +  pvth0     =  '0+dpvth0_n_18'                   	lnlx      =  -2.8540e-08 
 +  wnlx      =   0.0000e+00                          	pnlx      =   0.0000e+00
 +  wua       =  -1.8800e-11                          	wu0       =  '5.4000e-01+dwu0_n_18'
 +  pub       =   3.8000e-20                          	pw0       =   1.3000e-09 
 +  wrdsw     =   0.0000e+00                          	weta0     =   0.0000e+00                        
 +  wetab     =   0.0000e+00                          	leta0     =   1.5740e-03                        
 +  letab     =   0.0000e+00                          	peta0     =   0.0000e+00                        
 +  petab     =   0.0000e+00                          	wpclm     =   0.0000e+00                        
 +  wvoff     =  -4.0780e-04                          	lvoff     =  -4.2080e-03                        
 +  pvoff     =  -3.7880e-04                          	wa0       =  -4.7310e-02                        
 +  la0       =  -4.6670e-01                          	pa0       =  -2.6490e-02  
 +  wags      =   4.2420e-03                          	lags      =   3.0280e-01                        
 +  pags      =   0.0000e+00                          	wketa     =   0.0000e+00                        
 +  lketa     =  -1.9420e-02                          	pketa     =   0.0000e+00                        
 +  wute      =   6.3730e-02                          	lute      =   0.0000e+00                        
 +  pute      =   0.0000e+00                          	wvsat     =   5.0660e+03                    
 +  lvsat     =   0.0000e+00                          	pvsat     =  '0.0000e+00+dpvsat_n_18'                        
 +  lpdiblc2  =  -4.7520e-03                          	wat       =   7.0670e+03                        
 +  wprt      =   0.0000e+00                          	acm       =   3.0000e+00                        
 +  ldif      =   8.0000e-08                          	hdif      =   2.6000e-07                        
 +  n         =   1.0000e+00                          	php       =   8.8000e-01                        
 +  cjgate    =  '5.0000e-10+dcjgate_n_18'         	ctp       =   9.2400e-04                        
 +  ptp       =   9.2400e-04                          	cta       =   9.2900e-04                        
 +  pta       =   1.5800e-03                          	elm       =   5.0000e+00                        
 +  tlevc     =   1.0000e+00                        
                         
                        

 .model n_bpw_18.1 nmos
 *****model selectors/controllers*********************************
 +  level     =   4.9000e+01                          version   =   3.2000e+00  
 +  binunit   =   1.0000e+00                          mobmod    =   1.0000e+00                           
 +  capmod    =   2.0000e+00                          nqsmod    =   0.0000e+00                        
 +  noimod    =   1.0000e+00 

 *****process parameters******************************************
 +  tox       =  '4.2000e-09+dtox_n_bpw_18'            toxm      =   4.2000e-09                        
 +  xj        =   1.6000e-07                          nch       =   3.7446e+17                        
 +  rsh       =   8.0000e+00                          ngate     =   1.0000e+23


 *****basic model parameters**************************************
 +  vth0      =  '3.0750e-01+dvth0_n_bpw_18'           k1        =   4.5780e-01                     
 +  k2        =  -2.6380e-02                          k3        =  -1.0880e+01                        
 +  k3b       =   2.3790e-01                          w0        =  -8.8130e-08                        
 +  nlx       =   4.2790e-07                          dvt0      =   4.0420e-01                        
 +  dvt1      =   3.2370e-01                          dvt2      =  -8.6020e-01                        
 +  dvt0w     =   3.8300e-01                          dvt1w     =   6.0000e+05                        
 +  dvt2w     =  -2.5000e-02                          lint      =   1.5870e-08                        
 +  wint      =   1.0220e-08                          dwg       =  -3.3960e-09                        
 +  dwb       =   1.3460e-09                          u0        =  '3.2410e+02+du0_n_bpw_18'                       
 +  ua        =  -9.2010e-10                          ub        =   1.9070e-18
 +  uc        =   4.3550e-11                          vsat      =   7.2580e+04 
 +  a0        =   1.9300e+00                          ags       =   5.0720e-01                        
 +  b0        =   1.4860e-06                          b1        =   9.0640e-06                        
 +  keta      =   1.7520e-02                          a1        =   0.0000e+00                        
 +  a2        =   1.0000e+00                          voff      =  -1.0880e-01                        
 +  nfactor   =   1.0380e+00                          cit       =  -1.5110e-03                        
 +  cdsc      =   2.2750e-03                          cdscd     =  -5.0000e-04                        
 +  cdscb     =   8.2410e-04                          eta0      =   1.0040e-03                        
 +  etab      =  -1.4590e-03                          dsub      =   1.5920e-03                        
 +  pclm      =   1.0910e+00                          pdiblc1   =   3.0610e-03                        
 +  pdiblc2   =   1.0000e-06                          pdiblcb   =   0.0000e+00                        
 +  drout     =   1.5920e-03                          pscbe1    =   4.8660e+08                        
 +  pscbe2    =   2.8000e-07                          pvag      =  -2.9580e-01                        


 *****parameters for asymmetric and bias-dependent rds model******
 +  rdsw      =   4.9050e+00                          prwg      =   0.0000e+00                        
 +  prwb      =   0.0000e+00                          wr        =   1.0000e+00


 *****impact ionization current model parameters******************
 +  alpha0    =   0.0000e+00                          alpha1    =   0.0000e+00                        
 +  beta0     =   3.0000e+01                        



 *****charge and capacitance model parameters*********************
 +  xpart     =   1.0000e+00                          cgso      =  '2.3500e-10+dcgso_n_bpw_18'         
 +  cgdo      =  '2.3500e-10+dcgdo_n_bpw_18'           cgbo      =   0.0000e+00                        
 +  cgsl      =   0.0000e+00                          cgdl      =   0.0000e+00                        
 +  ckappa    =   6.0000e-01                          cf        =   1.5330e-10                        
 +  clc       =   1.0000e-07                          cle       =   6.0000e-01                        
 +  dlc       =   4.0000e-08                          dwc       =   0.0000e+00                        
 +  vfbcv     =  -1.0000e+00                          noff      =   1.0000e+00                        
 +  voffcv    =   0.0000e+00                          acde      =   1.0000e+00                        
 +  moin      =   1.5000e+01                        


 *****high-speed/rf model parameters******************************


 *****flicker and thermal noise model parameters******************
 +  noia      =   1.0000e+20                          noib      =   5.0000e+04                        
 +  noic      =  -1.4000e-12                          em        =   4.2000e+07                        
 +  af        =   1.0000e+00                          ef        =   1.0000e+00                        
 +  kf        =   0.0000e+00                        


 *****layout-dependent parasitics model parameters****************
 +  lmin      =   1.8000e-07                          lmax      =   5.0000e-05
 +  wmin      =   2.5000e-07                          wmax      =   1.0000e-04
 +  xl        = '-1.0500e-08+dxl_n_bpw_18'             xw        =  '0.0000e-00+dxw_n_bpw_18'           


 *****asymmetric source/drain junction diode model parameters*****
 +  js        =   1.0000e-06                          jsw       =   7.0000e-11                        
 +  cj        =  '1.0300e-03+dcj_n_bpw_18'             mj        =   4.4300e-01                        
 +  pb        =   8.2300e-01                          cjsw      =  '1.3400e-10+dcjsw_n_bpw_18'         
 +  mjsw      =   3.3000e-01                        


 *****temperature dependence parameters***************************
 +  tnom      =   2.5000e+01                          ute       =  -1.1860e+00                        
 +  kt1       =  -2.2550e-01                          kt1l      =  -4.2750e-09                        
 +  kt2       =  -2.5270e-02                          ua1       =   2.2530e-09                        
 +  ub1       =  -2.6730e-18                          uc1       =  -3.8320e-11                        
 +  at        =   1.4490e+04                          prt       =  -1.0180e+01                        
 +  xti       =   3.0000e+00                        


 *****dw and dl parameters****************************************
 +  wl        =   0.0000e+00                          wln       =   1.0000e+00                        
 +  ww        =   7.2620e-16                          wwn       =   1.0000e+00                        
 +  wwl       =   0.0000e+00                          ll        =  -1.0620e-15                        
 +  lln       =   1.0000e+00                          lw        =   2.9960e-15                        
 +  lwn       =   1.0000e+00                          lwl       =   0.0000e+00                        
 +  llc       =  -6.6400e-15                          lwc       =   0.0000e+00                        
 +  lwlc      =   0.0000e+00                          wlc       =   0.0000e+00                        
 +  wwc       =   0.0000e+00                          wwlc      =   0.0000e+00                        



 *****other parameters********************************************
 +  lvth0     = '-1.0000e-03+dlvth0_n_bpw_18'          wvth0     =  '6.027e-02+dwvth0_n_bpw_18'
 +  pvth0     =  '0+dpvth0_n_bpw_18'                   lnlx      =  -2.8540e-08 
 +  wnlx      =   0.0000e+00                          pnlx      =   0.0000e+00
 +  wua       =  -1.8800e-11                          wu0       =  '5.4000e-01+dwu0_n_bpw_18'
 +  pub       =   3.8000e-20                          pw0       =   1.3000e-09 
 +  wrdsw     =   0.0000e+00                          weta0     =   0.0000e+00                        
 +  wetab     =   0.0000e+00                          leta0     =   1.5740e-03                        
 +  letab     =   0.0000e+00                          peta0     =   0.0000e+00                        
 +  petab     =   0.0000e+00                          wpclm     =   0.0000e+00                        
 +  wvoff     =  -4.0780e-04                          lvoff     =  -4.2080e-03                        
 +  pvoff     =  -3.7880e-04                          wa0       =  -4.7310e-02                        
 +  la0       =  -4.6670e-01                          pa0       =  -2.6490e-02  
 +  wags      =   4.2420e-03                          lags      =   3.0280e-01                        
 +  pags      =   0.0000e+00                          wketa     =   0.0000e+00                        
 +  lketa     =  -1.9420e-02                          pketa     =   0.0000e+00                        
 +  wute      =   6.3730e-02                          lute      =   0.0000e+00                        
 +  pute      =   0.0000e+00                          wvsat     =   5.0660e+03                    
 +  lvsat     =   0.0000e+00                          pvsat     =  '0.0000e+00+dpvsat_n_bpw_18'                        
 +  lpdiblc2  =  -4.7520e-03                          wat       =   7.0670e+03                        
 +  wprt      =   0.0000e+00                          acm       =   3.0000e+00                        
 +  ldif      =   8.0000e-08                          hdif      =   2.6000e-07                        
 +  n         =   1.0000e+00                          php       =   8.8000e-01                        
 +  cjgate    =  '5.0000e-10+dcjgate_n_bpw_18'         ctp       =   9.2400e-04                        
 +  ptp       =   9.2400e-04                          cta       =   9.2900e-04                        
 +  pta       =   1.5800e-03                          elm       =   5.0000e+00                        
 +  tlevc     =   1.0000e+00                        
             



 ******************************************************************************************
 *         1.8v pmos model               *
 ******************************************************************************************

 .model p_18.1 pmos
 *****model selectors/controllers*********************************
 +  level     =   4.9000e+01                          mobmod    =   3.0000e+00                        
 +  version   =   3.2000e+00                          capmod    =   2.0000e+00                        
 +  binunit   =   1.0000e+00                          nqsmod    =   0.0000e+00
 +  noimod    =   1.0000e+00 

 *****process parameters******************************************
 +  tox       =  '4.2000e-09+dtox_p_18'               toxm      =   4.2000e-09                        
 +  xj        =   1.0000e-07                          nch       =   6.2310e+17                        
 +  ngate     =   1.0000e+23 

 *****basic model parameters**************************************
 +  vth0      = '-4.5550e-01+dvth0_p_18'              k1        =   5.7040e-01                        
 +  k2        =   6.9730e-03                          k3        =  -2.8330e+00                        
 +  k3b       =   1.3260e+00                          w0        =  -1.9430e-07                        
 +  nlx       =   2.5300e-07                          dvt0      =   4.8850e-01                        
 +  dvt1      =   7.5780e-02                          dvt2      =   1.1870e-01                        
 +  dvt0w     =  -1.2610e-01                          dvt1w     =   2.4790e+04                        
 +  dvt2w     =   6.9150e-01                          lint      =  -1.0410e-08                        
 +  wint      =  -1.5250e-07                          dwg       =  -1.2510e-07                        
 +  dwb       =  -1.0390e-07                          u0        =  '1.2450e+02+du0_p_18'  
 +  ua        =   1.5400e-09                          ub        =   2.6460e-19
 +  uc        =  -9.5870e-02                          vsat      =   5.3400e+04                                                                                            
 +  a0        =   1.3500e+00                          ags       =   3.8180e-01                        
 +  b0        =  -3.0880e-07                          b1        =   0.0000e+00                        
 +  keta      =   1.0440e-02                          a1        =   0.0000e+00                        
 +  a2        =   1.0000e+00                          voff      =  -1.0730e-01                                                                    
 +  nfactor   =   1.5350e-00                          cit       =  -1.0670e-03 
 +  cdsc      =   7.5780e-04                          cdscd     =  -2.8830e-05                        
 +  cdscb     =   1.0000e-04                          eta0      =   1.0710e+00                        
 +  etab      =  -9.2910e-01                          dsub      =   1.9191e+00
 +  pclm      =   2.6530e+00                          pdiblc1   =   0.0000e+00                        
 +  pdiblc2   =   5.0000e-06                          pdiblcb   =   0.0000e+00                        
 +  drout     =   1.4570e+00                          pscbe1    =   4.8660e+08                        
 +  pscbe2    =   2.8000e-07                          pvag      =   1.2620e+00                        


 *****parameters for asymmetric and bias-dependent rds model******
 +  rdsw      =   7.9210e+02                          prwg      =   0.0000e+00                        
 +  prwb      =   0.0000e+00                        


 *****impact ionization current model parameters******************
 +  alpha0    =   0.0000e+00                          alpha1    =   0.0000e+00                        
 +  beta0     =   3.0000e+01                        


 *****charge and capacitance model parameters*********************
 +  cgdo      =  '2.0540e-10+dcgdo_p_18'              cgbo      =   0.0000e+00                        
 +  cgso      =  '2.0540e-10+dcgso_p_18'              xpart     =   1.0000e+00                        
 +  cf        =   1.5330e-10                          dlc       =   7.0100e-08                                                                              
 +  cgsl      =   0.0000e+00                          cgdl      =   0.0000e+00                        
 +  ckappa    =   6.0000e-01                                                  
 +  clc       =   1.0000e-07                          cle       =   6.0000e-01                        
 +  dwc       =   0.0000e+00                        
 +  vfbcv     =  -1.0000e+00                          noff      =   1.0000e+00                        
 +  voffcv    =   0.0000e+00                          acde      =   1.0000e+00                        
 +  moin      =   1.5000e+01                        

 *****flicker and thermal noise model parameters******************
 +  noia      =   1.0000e+20                          noib      =   5.0000e+04                        
 +  noic      =  -1.4000e-12                          em        =   4.2000e+07                        
 +  af        =   1.0000e+00                          ef        =   1.0000e+00                        
 +  kf        =   0.0000e+00                        


 *****layout-dependent parasitics model parameters****************
 +  lmin      =   1.8000e-07                          lmax      =   5.0000e-05
 +  wmin      =   2.5000e-07                          wmax      =   1.0000e-04
 +  xl        = '-2.0000e-09+dxl_p_18'                xw        =  '0.0000e+00+dxw_p_18'           


 *****asymmetric source/drain junction diode model parameters*****
 +  js        =   3.0000e-06                          jsw       =   4.2200e-11                        
 +  cj        =  '1.2400e-03+dcj_p_18'                mj        =   3.9500e-01                        
 +  pb        =   7.6200e-01                          cjsw      =  '1.7400e-10+dcjsw_p_18'         
 +  mjsw      =   3.2400e-01                        


 *****temperature dependence parameters***************************
 +  tnom      =   2.5000e+01                          ute       =  -4.4840e-01                        
 +  kt1       =  -2.2940e-01                          kt1l      =  -8.2040e-09                        
 +  kt2       =  -9.4870e-03                          ua1       =   4.5710e-09                        
 +  ub1       =  -6.0260e-18                          uc1       =  -9.8500e-02                        
 +  at        =   1.2030e+04                          prt       =   0.0000e+00                        
 +  xti       =   3.0000e+00                        


 *****dw and dl parameters****************************************
 +  ww        =   1.2360e-14                          lw        =  -2.8730e-16                        
 +  ll        =   6.6350e-15                        
 +  wl        =   0.0000e+00                          wln       =   1.0000e+00                        
 +  wwn       =   1.0000e+00                        
 +  wwl       =   0.0000e+00                                                 
 +  lln       =   1.0000e+00                                                
 +  lwn       =   1.0000e+00                          lwl       =   0.0000e+00                        
 +  llc       =  -1.3100e-14                          lwc       =   0.0000e+00                        
 +  lwlc      =   0.0000e+00                          wlc       =   0.0000e+00                        
 +  wwc       =   0.0000e+00                          wwlc      =   0.0000e+00                        


 *****other parameters********************************************
 +  lvth0     =  '4.4000e-03+dlvth0_p_18'             wvth0     = '-1.4800e-02+dwvth0_p_18'                        
 +  pvth0     =  '3.2000e-03+dpvth0_p_18'             lnlx      =  -1.5840e-08 
 +  wrdsw     =   1.0070e+01                          weta0     =   0.0000e+00                        
 +  wetab     =   0.0000e+00                          wpclm     =   0.0000e+00                        
 +  wua       =   2.6300e-09                          lua       =  -8.2530e-11
 +  pua       =   5.8550e-11                          wub       =   0.0000e+00                        
 +  lub       =   0.0000e+00                          pub       =   0.0000e+00                        
 +  wuc       =   0.0000e+00                          luc       =   0.0000e+00                        
 +  puc       =   0.0000e+00                          wvoff     =  -9.8160e-03                        
 +  lvoff     =  -9.8710e-04                          pvoff     =  -9.8330e-05                        
 +  wa0       =  -4.8070e-02                          la0       =  -2.8100e-01
 +  pa0       =   8.6610e-02                          wags      =  -4.2770e-02                        
 +  lags      =   4.4540e-02                          pags      =  -4.0760e-02                        
 +  wketa     =   0.0000e+00                          lketa     =  -1.2000e-02
 +  pketa     =   0.0000e+00                          wute      =  -2.6820e-01                        
 +  lute      =   0.0000e+00                          pute      =   0.0000e+00                        
 +  wvsat     =  -1.4200e+04                          lvsat     =   0.0000e+00                        
 +  pvsat     = '-4.3400e+02+dpvsat_p_18'             lpdiblc2  =   3.0120e-03
 +  wat       =  -6.4050e+03                          wprt      =   2.2660e+02                        
 +  n         =   1.0000e+00                          php       =   6.6500e-01                        
 +  cta       =   1.0000e-03                          ctp       =   7.5300e-04                        
 +  pta       =   1.5500e-03                          ptp       =   1.2400e-03                        
 +  acm       =   3.0000e+00                          ldif      =   8.0000e-08             
 +  rsh       =   8.0000e+00                          rd        =   0.0000e+00                    
 +  rsc       =   0.0000e+00                          rdc       =   0.0000e+00
 +  hdif      =   2.6000e-07                          rs        =   0.0000e+00

 ******************************************************************************************
 *         3.3v nmos model               *
 ******************************************************************************************
 .model n_33.1 nmos
 +level    = 49                  
 *
 * general parameters
 *
 +lmin     = 3.5e-7              lmax     = 5.0e-5              wmin     = 2.5e-7              
 +wmax     = 1.0e-4              tnom     = 27.0                version  = 3.2                 
 +tox      = '7.00e-09+dtox_n_33'            xj       = 2.5000000e-07       
 +nch      = 1.6999999e+17       lln      = 1.0000000           lwn      = 1.0000000           
 +wln      = 1.0000000           wwn      = 1.0000000           lint     = '0.00+dlint_n_33'                
 +ll       = 1.2142200e-14       lw       = 0.00                lwl      = -2.8856721e-22      
 +wint     = '0.00+dwint_n_33'                wl       = 0.00                ww       = -2.0097143e-16      
 +wwl      = -1.5017800e-21      mobmod   = 1                   binunit  = 2                   
 +xl       = 2.20e-08            xw       = 0.00                dwg      = 3.5527140e-15       
 +dwb      = 6.2000000e-09       
 * diode parameters
 +acm      = 3                   ldif     = 0.00                hdif     = 3.20e-7                
 +rsh      = 8                                     
 *
 * threshold voltage parameters
 *
 +vth0     = '0.5924070+dvth0_n_33'           k1       = 0.7137536           k2       = -2.5826899e-02      
 +k3       = 62.0000000          dvt0     = 4.7501960           dvt1     = 0.6340203           
 +dvt2     = -0.2139230          dvt0w    = 0.2500000           dvt1w    = 5.9500000e+05       
 +dvt2w    = 0.00                nlx      = 1.2508283e-07       w0       = 5.6800000e-06       
 +k3b      = 32.0000000           
 *
 * mobility parameters
 *
 +vsat     = 9.8280000e+04       ua       = -5.8546880e-10      ub       = 1.6518923e-18       
 +uc       = 5.5177280e-11       rdsw     = 5.9591060e+02       prwb     = 5.7154760e-02       
 +prwg     = 2.3068622e-02       wr       = 1.0000000           u0       = 3.4129650e-02       
 +a0       = 1.2752739           keta     = 5.0000000e-03       a1       = 1.0000000e-02       
 +a2       = 0.9900000           ags      = 0.2678509           b0       = 1.0000000e-08       
 +b1       = 9.0000000e-07       
 *
 * subthreshold current parameters
 *
 +voff     = -0.2360862          nfactor  = 1.0000000           cit      = 0.00                
 +cdsc     = 2.3999999e-04       cdscb    = 0.00                cdscd    = 2.3999999e-04       
 +eta0     = 0.2080775           etab     = -1.5000000e-03      dsub     = 0.5210000           
 *
 * rout parameters
 *
 +pclm     = 0.6318000           pdiblc1  = 9.4999000e-04       pdiblc2  = 1.0000000e-03       
 +pdiblcb  = 0.00                drout    = 0.5600000           pscbe1   = 4.2400000e+08       
 +pscbe2   = 1.0000000e-05       pvag     = 0.00                delta    = 1.0000000e-02       
 +alpha0   = 0.00                alpha1   = 0.00                beta0    = 30.0000000          
 *
 * temperature effects parameters
 *
 +kt1      = -0.3166082          kt2      = -4.4608160e-02      at       = 5.0000000e+02       
 +ute      = -1.6006135          ua1      = 4.2028770e-11       ub1      = 3.8000000e-19       
 +uc1      = 2.8000000e-11       kt1l     = 0.0000000           prt      = -2.7126447e+02      
 *	
 * capacitance parameters
 *
 +cj       = 7.673167e-04   	mj       = 0.3299333      	pb       = 0.7131242      	
 +cjsw     = 1.088665e-10   	mjsw     = 0.2036705      	php      = 0.4347057      	
 +cta      = 1.081522e-03   	ctp      = 7.482284e-04   	pta      = 1.822417e-03   	
 +ptp      = 2.008567e-03   	js       = 1.00e-05       	jsw      = 5.2e-11           	
 +cgdo     = '2.7e-10+dcgdo_n_33'        	
 +cgso     = '2.7e-10+dcgso_n_33'        	cgbo     = 1.0e-10       	capmod   = 2              	
 +nqsmod   = 0              	elm      = 5              	xpart    = 1              	
 +cf       = 1.392e-10          	cjgate   = 2.9e-10              tlevc    = 1


 ******************************************************************************************
 *         0.18um 1.8v/3.3v mixedmode triple-well technology, 3.3v nmos model               *
 ******************************************************************************************
 .model n_bpw_33.1 nmos
 +level    = 49                  
 *
 * general parameters
 *
 +lmin     = 3.5e-7              lmax     = 5.0e-5              wmin     = 2.5e-7              
 +wmax     = 1.0e-4              tnom     = 27.0                version  = 3.2                 
 +tox      = '7.00e-09+dtox_n_bpw_33'            xj       = 2.5000000e-07       
 +nch      = 1.6999999e+17       lln      = 1.0000000           lwn      = 1.0000000           
 +wln      = 1.0000000           wwn      = 1.0000000           lint     = '0.00+dlint_n_bpw_33'                
 +ll       = 1.2142200e-14       lw       = 0.00                lwl      = -2.8856721e-22      
 +wint     = '0.00+dwint_n_bpw_33'                wl       = 0.00                ww       = -2.0097143e-16      
 +wwl      = -1.5017800e-21      mobmod   = 1                   binunit  = 2                   
 +xl       = 2.20e-08            xw       = 0.00                dwg      = 3.5527140e-15       
 +dwb      = 6.2000000e-09       
 * diode parameters
 +acm      = 3                   ldif     = 0.00                hdif     = 3.20e-7                
 +rsh      = 8                                     
 *
 * threshold voltage parameters
 *
 +vth0     = '0.5924070+dvth0_n_bpw_33'           k1       = 0.7137536           k2       = -2.5826899e-02      
 +k3       = 62.0000000          dvt0     = 4.7501960           dvt1     = 0.6340203           
 +dvt2     = -0.2139230          dvt0w    = 0.2500000           dvt1w    = 5.9500000e+05       
 +dvt2w    = 0.00                nlx      = 1.2508283e-07       w0       = 5.6800000e-06       
 +k3b      = 32.0000000           
 *
 * mobility parameters
 *
 +vsat     = 9.8280000e+04       ua       = -5.8546880e-10      ub       = 1.6518923e-18       
 +uc       = 5.5177280e-11       rdsw     = 5.9591060e+02       prwb     = 5.7154760e-02       
 +prwg     = 2.3068622e-02       wr       = 1.0000000           u0       = 3.4129650e-02       
 +a0       = 1.2752739           keta     = 5.0000000e-03       a1       = 1.0000000e-02       
 +a2       = 0.9900000           ags      = 0.2678509           b0       = 1.0000000e-08       
 +b1       = 9.0000000e-07       
 *
 * subthreshold current parameters
 *
 +voff     = -0.2360862          nfactor  = 1.0000000           cit      = 0.00                
 +cdsc     = 2.3999999e-04       cdscb    = 0.00                cdscd    = 2.3999999e-04       
 +eta0     = 0.2080775           etab     = -1.5000000e-03      dsub     = 0.5210000           
 *
 * rout parameters
 *
 +pclm     = 0.6318000           pdiblc1  = 9.4999000e-04       pdiblc2  = 1.0000000e-03       
 +pdiblcb  = 0.00                drout    = 0.5600000           pscbe1   = 4.2400000e+08       
 +pscbe2   = 1.0000000e-05       pvag     = 0.00                delta    = 1.0000000e-02       
 +alpha0   = 0.00                alpha1   = 0.00                beta0    = 30.0000000          
 *
 * temperature effects parameters
 *
 +kt1      = -0.3166082          kt2      = -4.4608160e-02      at       = 5.0000000e+02       
 +ute      = -1.6006135          ua1      = 4.2028770e-11       ub1      = 3.8000000e-19       
 +uc1      = 2.8000000e-11       kt1l     = 0.0000000           prt      = -2.7126447e+02      
 *	
 * capacitance parameters
 *
 +cj       = 7.673167e-04   	mj       = 0.3299333      	pb       = 0.7131242      	
 +cjsw     = 1.088665e-10   	mjsw     = 0.2036705      	php      = 0.4347057      	
 +cta      = 1.081522e-03   	ctp      = 7.482284e-04   	pta      = 1.822417e-03   	
 +ptp      = 2.008567e-03   	js       = 1.00e-05       	jsw      = 5.2e-11           	
 +cgdo     = '2.7e-10+dcgdo_n_bpw_33'        	
 +cgso     = '2.7e-10+dcgso_n_bpw_33'        	cgbo     = 1.0e-10       	capmod   = 2              	
 +nqsmod   = 0              	elm      = 5              	xpart    = 1              	
 +cf       = 1.392e-10          	cjgate   = 2.9e-10              tlevc    = 1
            	



 ******************************************************************************************
 *         3.3v pmos model               *
 ******************************************************************************************
 .model p_33.1 pmos
 +level    = 49             	
 +lmin     = 3.5e-7         	lmax     = 5.0e-5         	wmin     = 2.5e-7         	
 +wmax     = 1.0e-4        	tnom     = 27.0           	version  = 3.2            	
 +tox      = '7.00000e-09+dtox_p_33'    	xj       = 1.8000000e-07  	nch      = 4.3096250e+17  	
 +lln      = 1.4787377      	lwn      = 1.0000000      	wln      = 1.0000000      	
 +wwn      = 1.6332974      	lint     = '2.2396316e-08+dlint_p_33'  	ll       = 3.3436880e-18  	
 +lw       = 0.00           	lwl      = -1.4344100e-24 	wint     = '3.3613110e-08+dwint_p_33'  	
 +wl       = 0.00           	ww       = -7.2735800e-19 	wwl      = 9.7470860e-26  	
 +mobmod   = 1              	xl       = -1.0000e-08          xw       = 0                	
 +dwg      = -1.4371156e-08 	dwb      = 5.9839220e-09  	
 +vth0     = '-0.7204355+dvth0_p_33'     	k1       = 0.7667419      	k2       = 5.4286610e-02  	
 +k3       = 2.0892601      	dvt0     = 7.3947320      	dvt1     = 0.9634880      	
 +dvt2     = 7.8053260e-03  	dvt0w    = 1.7969700      	dvt1w    = 2.8762723e+06  	
 +dvt2w    = 0.2026245      	nlx      = 0.00           	w0       = 2.2247300e-07  	
 +k3b      = 1.0028400      	         	
 +vsat     = 1.0007731e+05  	ua       = -3.9782800e-10 	ub       = 1.6947495e-18  	
 +uc       = -3.6494700e-11 	rdsw     = 6.2701920e+02  	prwb     = -0.7725255     	
 +prwg     = 3.3490300e-02  	wr       = 0.9913232      	u0       = 8.0758510e-03  	
 +a0       = 1.0736154      	keta     = -1.0346900e-02 	a1       = 0.01      	
 +a2       = 0.9212255      	ags      = 0.2138427      	b0       = 4.3581280e-07  	
 +b1       = 1.7378807e-06  	
 +voff     = -0.2239050     	nfactor  = 0.9964148      	cit      = 5.3336740e-04  	
 +cdsc     = 3.2656700e-03  	cdscb    = 2.4630399e-03  	cdscd    = 0.00           	
 +eta0     = 5.4210600e-02  	etab     = -1.8931806e-02 	dsub     = 0.4594282      	
 +pclm     = 0.6164396      	pdiblc1  = 1.2236120e-02  	pdiblc2  = 3.5433970e-04  	
 +pdiblcb  = 0.2477877      	drout    = 0.2401412      	pscbe1   = 4.6427620e+08  	
 +pscbe2   = 2.8700000e-05  	pvag     = -0.2307000     	delta    = 1.0000000e-02  	
 +alpha0   = 0.00           	beta0    = 30.0000000     	
 +kt1      = -0.3345865     	kt2      = -5.7475180e-02 	at       = 4.9500000e+04  	
 +ute      = -1.2277215     	ua1      = 1.4019034e-09  	ub1      = -3.4171990e-18 	
 +uc1      = -1.3930956e-10 	kt1l     = 1.0000003e-08  	prt      = 0.00           	
 +cj       = 1.299812e-03   	mj       = 0.4096944      	pb       = 0.761753       	
 +cjsw     = 2.243239e-10   	mjsw     = 0.474468       	php      = 0.9296629      	
 +cta      = 9.968635e-04   	ctp      = 7.21932e-04    	pta      = 1.503527e-03   	
 +ptp      = 1.215858e-03   	js       = 9.00e-05       	jsw      = 4.90e-12     	
 +cgdo     = '2.6e-10+dcgdo_p_33'        	
 +cgso     = '2.6e-10+dcgso_p_33'        	cgbo     = 1e-10             	capmod   = 2              	
 +nqsmod   = 0              	elm      = 5              	xpart    = 1              	
 +cf       = 1.392e-10       	tlevc    = 1
 +acm      = 3                 hdif     = 3.2e-7                rsh     = 8               	 
            	


 ******************************************************************************************
 *         1.8v low vt nmos model     *
 ******************************************************************************************
 .model n_lv_18.1 nmos
 +level    = 49             	
 +lmin     = 2.5e-7         	lmax     = 5.0e-5         	wmin     = 2.5e-7         	
 +wmax     = 1.0e-4         	tnom     = 27.0           	version  = 3.2            	
 +tox      = '4.20000e-09+dtox_n_lv_18'    	xj       = 1.6000000e-07  	nch      = 4.6371000e+17  	
 +lln      = 2.0000000      	lwn      = 1.0000000      	wln      = 1.0000000      	
 +wwn      = 1.0000000      	lint     = '1.0000000e-08+dtox_n_lv_18'  	ll       = -2.5800000e-22 	
 +lw       = 0.00           	lwl      = 0.00           	wint     = '2.0000000e-08+dtox_n_lv_18'  	
 +wl       = 0.00           	ww       = 0.00           	wwl      = 0.00           	
 +mobmod   = 2              	binunit  = 2              	xl       = 0              	
 +xw       = 0              	
 +dwg      = 2.5000000e-09  	dwb      = 1.2441700e-09  	
 +acm      = 3              	hdif     = 2.6e-07             	rsh      = 8              	
 +vth0     = '1.6460000e-02+dtox_n_lv_18'  	k1       = 0.3122200      	k2       = -4.3434400e-02 	
 +k3       = -15.4245000    	dvt0     = 1.9600000      	dvt1     = 0.2703380      	
 +dvt2     = 7.0000000e-02  	dvt0w    = 0.4113980      	dvt1w    = 1.6626000e+06  	
 +dvt2w    = -4.4234600e-02 	nlx      = 8.3200000e-07  	w0       = 1.0000000e-06  	
 +k3b      = -0.2101380     	           	
 +vsat     = 9.20e+04    	pvsat    = 1.9999999e-09  	ua       = 5.2358400e-10  	
 +wua      = 1.0000000e-16  	pua      = -7.5000000e-23 	ub       = 1.4080000e-18  	
 +wub      = -3.0000001e-25 	pub      = 8.0000000e-32  	uc       = -1.0246000e-10 	
 +rdsw     = 96.7580000     	prwb     = -0.2000000     	prwg     = 5.0000000e-02  	
 +wr       = 1.0000000      	u0       = 4.9234500e-02  	wu0      = 2.4000000e-09  	
 +pu0      = 2.0000000e-16  	a0       = 1.0000000      	keta     = 4.2062700e-03  	
 +a1       = 0.00           	a2       = 1.0000000      	ags      = 0.6300000      	
 +b0       = 0.00           	b1       = 0.00           	
 +voff     = -0.2517590     	nfactor  = 1.0000000      	cit      = -4.5359940e-03 	
 +cdsc     = 1.2000000e-03  	cdscb    = 0.00           	cdscd    = 5e-4           	
 +eta0     = 5.5334000e-02  	etab     = -2.3552900e-02 	dsub     = 0.5600000      	
 +pclm     = 2.8151700      	pdiblc1  = 0.2000000      	pdiblc2  = 8.0000000e-02  	
 +pdiblcb  = 0.2777778      	drout    = 1.0000000      	pscbe1   = 6.6815310e+08  	
 +pscbe2   = 1.0000000e-10  	pvag     = 0.5000000      	delta    = 1.0000000e-02  	
 +alpha0   = 0.00           	beta0    = 30.0000000     	
 +kt1      = -0.2999444     	kt2      = 1.5900001e-02  	at       = 3.3000000e+04  	
 +ute      = -1.6873263     	ua1      = -1.3554663e-09 	ub1      = 8.7998690e-20  	
 +uc1      = 3.4078270e-11  	kt1l     = 0.00           	prt      = -1.0000000e+02 	
 +cj       = 0.00099        	mj       = 0.5            	pb       = 0.762          	
 +cjsw     = 1.5e-10        	mjsw     = 0.257          	php      = 0.639          	
 +cta      = 0.000902       	ctp      = 0.000718       	pta      = 0.000872       	
 +ptp      = 0.00385        	js       = 1.00e-04       	jsw      = 0.00           	
 +cjgate    = 2.4e-10        	        	
 +cgdo     = '2.0e-10+dcgdo_n_lv_18'        	
 +cgso     = '2.0e-10+dcgso_n_lv_18'        	cgbo     = 0.0          	capmod   = 2              	
 +nqsmod   = 0              	elm      = 5              	xpart    = 1              	
 +cf       = 1.53e-10       	
 +dwc      = 2e-08          	tlevc    = 1 



 ******************************************************************************************
 *         1.8v low vt pmos model     *
 ******************************************************************************************            	

 .model p_lv_18.1 pmos
 +level    = 49             	
 +lmin     = 2.5e-7         	lmax     = 5.0e-5        	wmin     = 2.5e-7         	
 +wmax     = 1.0e-4         	tnom     = 27.0           	version  = 3.2            	
 +tox      = '4.20000e-09+dtox_p_lv_18'    	xj       = 1.8000000e-07  	nch      = 2.6699999e+17  	
 +lln      = 0.2000000      	lwn      = 1.0000000      	wln      = 0.7966000      	
 +wwn      = 1.7867000      	lint     = '0.00+dlint_p_lv_18'           	ll       = 8.9200000e-10  	
 +lw       = -8.0000000e-14 	lwl      = 3.7900000e-15  	wint     = '-4.2700000e-08+dwint_n_zero_18' 	
 +wl       = 5.6500000e-14  	ww       = 5.7000000e-24  	wwl      = 1.8000000e-25  	
 +mobmod   = 1              	binunit  = 2              	xl       = 0              	
 +xw       = 0              	
 +dwg      = -1.0600000e-08 	dwb      = -1.0100000e-09 	
 +acm      = 3              	hdif     = 2.6e-07             	rsh      = 8             	
 +vth0     = '-0.2253000+dvth0_n_zero_18'     	k1       = 0.4604000      	k2       = -1.0000000e-02 	
 +k3       = -6.3916000     	dvt0     = 1.0400000e-03  	dvt1     = 2.9700000e-02  	
[...]
   31.62278      25.1940   
   32.35937      25.1940   
   33.11311      25.1940   
   33.88442      25.1940   
   34.67369      25.1940   
   35.48134      25.1940   
   36.30781      25.1940   
   37.15352      25.1940   
   38.01894      25.1940   
   38.90451      25.1940   
   39.81072      25.1940   
   40.73803      25.1940   
   41.68694      25.1940   
   42.65795      25.1940   
   43.65158      25.1940   
   44.66836      25.1940   
   45.70882      25.1940   
   46.77351      25.1940   
   47.86301      25.1940   
   48.97788      25.1940   
   50.11872      25.1940   
   51.28614      25.1940   
   52.48075      25.1940   
   53.70318      25.1940   
   54.95409      25.1940   
   56.23413      25.1940   
   57.54399      25.1940   
   58.88437      25.1940   
   60.25596      25.1940   
   61.65950      25.1940   
   63.09573      25.1940   
   64.56542      25.1940   
   66.06934      25.1940   
   67.60830      25.1940   
   69.18310      25.1940   
   70.79458      25.1940   
   72.44360      25.1940   
   74.13102      25.1940   
   75.85776      25.1940   
   77.62471      25.1940   
   79.43282      25.1940   
   81.28305      25.1940   
   83.17638      25.1940   
   85.11380      25.1940   
   87.09636      25.1940   
   89.12509      25.1940   
   91.20108      25.1940   
   93.32543      25.1940   
   95.49926      25.1940   
   97.72372      25.1940   
  100.00000      25.1940   
  102.32930      25.1940   
  104.71285      25.1940   
  107.15193      25.1940   
  109.64782      25.1940   
  112.20185      25.1940   
  114.81536      25.1940   
  117.48976      25.1940   
  120.22644      25.1940   
  123.02688      25.1940   
  125.89254      25.1940   
  128.82496      25.1940   
  131.82567      25.1940   
  134.89629      25.1940   
  138.03843      25.1940   
  141.25375      25.1940   
  144.54398      25.1940   
  147.91084      25.1940   
  151.35612      25.1940   
  154.88166      25.1940   
  158.48932      25.1940   
  162.18101      25.1940   
  165.95869      25.1940   
  169.82437      25.1940   
  173.78008      25.1940   
  177.82794      25.1940   
  181.97009      25.1940   
  186.20871      25.1940   
  190.54607      25.1940   
  194.98446      25.1940   
  199.52623      25.1940   
  204.17379      25.1940   
  208.92961      25.1940   
  213.79621      25.1940   
  218.77616      25.1940   
  223.87211      25.1940   
  229.08677      25.1940   
  234.42288      25.1940   
  239.88329      25.1940   
  245.47089      25.1940   
  251.18864      25.1940   
  257.03958      25.1940   
  263.02680      25.1940   
  269.15348      25.1940   
  275.42287      25.1940   
  281.83829      25.1940   
  288.40315      25.1940   
  295.12092      25.1940   
  301.99517      25.1940   
  309.02954      25.1940   
  316.22777      25.1940   
  323.59366      25.1940   
  331.13112      25.1940   
  338.84416      25.1940   
  346.73685      25.1940   
  354.81339      25.1940   
  363.07805      25.1940   
  371.53523      25.1940   
  380.18940      25.1940   
  389.04514      25.1940   
  398.10717      25.1940   
  407.38028      25.1940   
  416.86938      25.1940   
  426.57952      25.1940   
  436.51583      25.1940   
  446.68359      25.1940   
  457.08819      25.1940   
  467.73514      25.1940   
  478.63009      25.1940   
  489.77882      25.1940   
  501.18723      25.1940   
  512.86138      25.1940   
  524.80746      25.1940   
  537.03180      25.1940   
  549.54087      25.1940   
  562.34133      25.1940   
  575.43994      25.1940   
  588.84366      25.1940   
  602.55959      25.1940   
  616.59500      25.1940   
  630.95734      25.1940   
  645.65423      25.1940   
  660.69345      25.1940   
  676.08298      25.1940   
  691.83097      25.1940   
  707.94578      25.1940   
  724.43596      25.1940   
  741.31024      25.1940   
  758.57758      25.1940   
  776.24712      25.1940   
  794.32823      25.1940   
  812.83052      25.1940   
  831.76377      25.1940   
  851.13804      25.1940   
  870.96359      25.1940   
  891.25094      25.1940   
  912.01084      25.1940   
  933.25430      25.1940   
  954.99259      25.1940   
  977.23722      25.1940   
    1.00000k     25.1940   
    1.02329k     25.1940   
    1.04713k     25.1940   
    1.07152k     25.1940   
    1.09648k     25.1940   
    1.12202k     25.1940   
    1.14815k     25.1940   
    1.17490k     25.1940   
    1.20226k     25.1940   
    1.23027k     25.1940   
    1.25893k     25.1940   
    1.28825k     25.1940   
    1.31826k     25.1940   
    1.34896k     25.1940   
    1.38038k     25.1940   
    1.41254k     25.1940   
    1.44544k     25.1940   
    1.47911k     25.1940   
    1.51356k     25.1940   
    1.54882k     25.1940   
    1.58489k     25.1940   
    1.62181k     25.1940   
    1.65959k     25.1940   
    1.69824k     25.1940   
    1.73780k     25.1940   
    1.77828k     25.1940   
    1.81970k     25.1940   
    1.86209k     25.1940   
    1.90546k     25.1940   
    1.94984k     25.1940   
    1.99526k     25.1940   
    2.04174k     25.1940   
    2.08930k     25.1940   
    2.13796k     25.1940   
    2.18776k     25.1940   
    2.23872k     25.1940   
    2.29087k     25.1940   
    2.34423k     25.1940   
    2.39883k     25.1940   
    2.45471k     25.1940   
    2.51189k     25.1940   
    2.57040k     25.1940   
    2.63027k     25.1940   
    2.69153k     25.1940   
    2.75423k     25.1940   
    2.81838k     25.1940   
    2.88403k     25.1940   
    2.95121k     25.1940   
    3.01995k     25.1940   
    3.09030k     25.1940   
    3.16228k     25.1940   
    3.23594k     25.1940   
    3.31131k     25.1940   
    3.38844k     25.1940   
    3.46737k     25.1940   
    3.54813k     25.1940   
    3.63078k     25.1940   
    3.71535k     25.1940   
    3.80189k     25.1940   
    3.89045k     25.1940   
    3.98107k     25.1940   
    4.07380k     25.1940   
    4.16869k     25.1940   
    4.26580k     25.1940   
    4.36516k     25.1940   
    4.46684k     25.1940   
    4.57088k     25.1940   
    4.67735k     25.1940   
    4.78630k     25.1940   
    4.89779k     25.1940   
    5.01187k     25.1940   
    5.12861k     25.1940   
    5.24807k     25.1940   
    5.37032k     25.1940   
    5.49541k     25.1940   
    5.62341k     25.1940   
    5.75440k     25.1940   
    5.88844k     25.1940   
    6.02560k     25.1940   
    6.16595k     25.1940   
    6.30957k     25.1940   
    6.45654k     25.1940   
    6.60693k     25.1940   
    6.76083k     25.1940   
    6.91831k     25.1940   
    7.07946k     25.1940   
    7.24436k     25.1940   
    7.41310k     25.1940   
    7.58578k     25.1940   
    7.76247k     25.1940   
    7.94328k     25.1940   
    8.12831k     25.1940   
    8.31764k     25.1940   
    8.51138k     25.1940   
    8.70964k     25.1940   
    8.91251k     25.1940   
    9.12011k     25.1940   
    9.33254k     25.1940   
    9.54993k     25.1940   
    9.77237k     25.1940   
   10.00000k     25.1940   
   10.23293k     25.1940   
   10.47129k     25.1940   
   10.71519k     25.1940   
   10.96478k     25.1940   
   11.22018k     25.1940   
   11.48154k     25.1940   
   11.74898k     25.1940   
   12.02264k     25.1940   
   12.30269k     25.1940   
   12.58925k     25.1940   
   12.88250k     25.1940   
   13.18257k     25.1940   
   13.48963k     25.1940   
   13.80384k     25.1940   
   14.12538k     25.1940   
   14.45440k     25.1940   
   14.79108k     25.1940   
   15.13561k     25.1940   
   15.48817k     25.1940   
   15.84893k     25.1940   
   16.21810k     25.1940   
   16.59587k     25.1940   
   16.98244k     25.1940   
   17.37801k     25.1940   
   17.78279k     25.1940   
   18.19701k     25.1940   
   18.62087k     25.1940   
   19.05461k     25.1940   
   19.49845k     25.1940   
   19.95262k     25.1940   
   20.41738k     25.1940   
   20.89296k     25.1940   
   21.37962k     25.1940   
   21.87762k     25.1940   
   22.38721k     25.1940   
   22.90868k     25.1940   
   23.44229k     25.1940   
   23.98833k     25.1940   
   24.54709k     25.1940   
   25.11886k     25.1940   
   25.70396k     25.1940   
   26.30268k     25.1940   
   26.91535k     25.1940   
   27.54229k     25.1940   
   28.18383k     25.1940   
   28.84032k     25.1940   
   29.51209k     25.1940   
   30.19952k     25.1940   
   30.90295k     25.1940   
   31.62278k     25.1940   
   32.35937k     25.1940   
   33.11311k     25.1940   
   33.88442k     25.1940   
   34.67369k     25.1940   
   35.48134k     25.1940   
   36.30781k     25.1940   
   37.15352k     25.1940   
   38.01894k     25.1940   
   38.90451k     25.1940   
   39.81072k     25.1940   
   40.73803k     25.1940   
   41.68694k     25.1940   
   42.65795k     25.1940   
   43.65158k     25.1940   
   44.66836k     25.1940   
   45.70882k     25.1940   
   46.77351k     25.1940   
   47.86301k     25.1940   
   48.97788k     25.1940   
   50.11872k     25.1940   
   51.28614k     25.1940   
   52.48075k     25.1940   
   53.70318k     25.1940   
   54.95409k     25.1940   
   56.23413k     25.1940   
   57.54399k     25.1940   
   58.88437k     25.1940   
   60.25596k     25.1940   
   61.65950k     25.1940   
   63.09573k     25.1939   
   64.56542k     25.1939   
   66.06934k     25.1939   
   67.60830k     25.1939   
   69.18310k     25.1939   
   70.79458k     25.1939   
   72.44360k     25.1939   
   74.13102k     25.1939   
   75.85776k     25.1939   
   77.62471k     25.1939   
   79.43282k     25.1939   
   81.28305k     25.1939   
   83.17638k     25.1939   
   85.11380k     25.1939   
   87.09636k     25.1939   
   89.12509k     25.1939   
   91.20108k     25.1939   
   93.32543k     25.1938   
   95.49926k     25.1938   
   97.72372k     25.1938   
  100.00000k     25.1938   
  102.32930k     25.1938   
  104.71285k     25.1938   
  107.15193k     25.1938   
  109.64782k     25.1938   
  112.20185k     25.1938   
  114.81536k     25.1937   
  117.48976k     25.1937   
  120.22644k     25.1937   
  123.02688k     25.1937   
  125.89254k     25.1937   
  128.82496k     25.1937   
  131.82567k     25.1937   
  134.89629k     25.1936   
  138.03843k     25.1936   
  141.25375k     25.1936   
  144.54398k     25.1936   
  147.91084k     25.1936   
  151.35612k     25.1935   
  154.88166k     25.1935   
  158.48932k     25.1935   
  162.18101k     25.1935   
  165.95869k     25.1934   
  169.82437k     25.1934   
  173.78008k     25.1934   
  177.82794k     25.1933   
  181.97009k     25.1933   
  186.20871k     25.1933   
  190.54607k     25.1932   
  194.98446k     25.1932   
  199.52623k     25.1932   
  204.17379k     25.1931   
  208.92961k     25.1931   
  213.79621k     25.1930   
  218.77616k     25.1930   
  223.87211k     25.1929   
  229.08677k     25.1929   
  234.42288k     25.1928   
  239.88329k     25.1928   
  245.47089k     25.1927   
  251.18864k     25.1927   
  257.03958k     25.1926   
  263.02680k     25.1925   
  269.15348k     25.1925   
  275.42287k     25.1924   
  281.83829k     25.1923   
  288.40315k     25.1922   
  295.12092k     25.1921   
  301.99517k     25.1921   
  309.02954k     25.1920   
  316.22777k     25.1919   
  323.59366k     25.1918   
  331.13112k     25.1917   
  338.84416k     25.1915   
  346.73685k     25.1914   
  354.81339k     25.1913   
  363.07805k     25.1912   
  371.53523k     25.1910   
  380.18940k     25.1909   
  389.04514k     25.1908   
  398.10717k     25.1906   
  407.38028k     25.1904   
  416.86938k     25.1903   
  426.57952k     25.1901   
  436.51583k     25.1899   
  446.68359k     25.1897   
  457.08819k     25.1895   
  467.73514k     25.1893   
  478.63009k     25.1891   
  489.77882k     25.1888   
  501.18723k     25.1886   
  512.86138k     25.1883   
  524.80746k     25.1881   
  537.03180k     25.1878   
  549.54087k     25.1875   
  562.34133k     25.1872   
  575.43994k     25.1869   
  588.84366k     25.1865   
  602.55959k     25.1862   
  616.59500k     25.1858   
  630.95734k     25.1854   
  645.65423k     25.1850   
  660.69345k     25.1846   
  676.08298k     25.1841   
  691.83097k     25.1837   
  707.94578k     25.1832   
  724.43596k     25.1827   
  741.31024k     25.1821   
  758.57758k     25.1816   
  776.24712k     25.1810   
  794.32823k     25.1804   
  812.83052k     25.1797   
  831.76377k     25.1791   
  851.13804k     25.1783   
  870.96359k     25.1776   
  891.25094k     25.1768   
  912.01084k     25.1760   
  933.25430k     25.1752   
  954.99259k     25.1743   
  977.23722k     25.1734   
    1.00000x     25.1724   
    1.02329x     25.1714   
    1.04713x     25.1703   
    1.07152x     25.1692   
    1.09648x     25.1680   
    1.12202x     25.1668   
    1.14815x     25.1655   
    1.17490x     25.1642   
    1.20226x     25.1628   
    1.23027x     25.1613   
    1.25893x     25.1598   
    1.28825x     25.1582   
    1.31826x     25.1565   
    1.34896x     25.1547   
    1.38038x     25.1529   
    1.41254x     25.1510   
    1.44544x     25.1490   
    1.47911x     25.1468   
    1.51356x     25.1446   
    1.54882x     25.1423   
    1.58489x     25.1399   
    1.62181x     25.1374   
    1.65959x     25.1347   
    1.69824x     25.1319   
    1.73780x     25.1290   
    1.77828x     25.1260   
    1.81970x     25.1228   
    1.86209x     25.1195   
    1.90546x     25.1160   
    1.94984x     25.1123   
    1.99526x     25.1085   
    2.04174x     25.1045   
    2.08930x     25.1004   
    2.13796x     25.0960   
    2.18776x     25.0914   
    2.23872x     25.0867   
    2.29087x     25.0817   
    2.34423x     25.0765   
    2.39883x     25.0710   
    2.45471x     25.0653   
    2.51189x     25.0593   
    2.57040x     25.0531   
    2.63027x     25.0465   
    2.69153x     25.0397   
    2.75423x     25.0325   
    2.81838x     25.0251   
    2.88403x     25.0173   
    2.95121x     25.0091   
    3.01995x     25.0006   
    3.09030x     24.9917   
    3.16228x     24.9824   
    3.23594x     24.9727   
    3.31131x     24.9625   
    3.38844x     24.9519   
    3.46737x     24.9408   
    3.54813x     24.9292   
    3.63078x     24.9171   
    3.71535x     24.9045   
    3.80189x     24.8913   
    3.89045x     24.8776   
    3.98107x     24.8632   
    4.07380x     24.8482   
    4.16869x     24.8326   
    4.26580x     24.8163   
    4.36516x     24.7993   
    4.46684x     24.7815   
    4.57088x     24.7630   
    4.67735x     24.7437   
    4.78630x     24.7236   
    4.89779x     24.7027   
    5.01187x     24.6808   
    5.12861x     24.6581   
    5.24807x     24.6344   
    5.37032x     24.6097   
    5.49541x     24.5840   
    5.62341x     24.5573   
    5.75440x     24.5294   
    5.88844x     24.5005   
    6.02560x     24.4704   
    6.16595x     24.4391   
    6.30957x     24.4066   
    6.45654x     24.3727   
    6.60693x     24.3376   
    6.76083x     24.3011   
    6.91831x     24.2633   
    7.07946x     24.2240   
    7.24436x     24.1832   
    7.41310x     24.1409   
    7.58578x     24.0971   
    7.76247x     24.0516   
    7.94328x     24.0045   
    8.12831x     23.9558   
    8.31764x     23.9053   
    8.51138x     23.8531   
    8.70964x     23.7990   
    8.91251x     23.7432   
    9.12011x     23.6854   
    9.33254x     23.6258   
    9.54993x     23.5642   
    9.77237x     23.5006   
   10.00000x     23.4350   
   10.23293x     23.3674   
   10.47129x     23.2977   
   10.71519x     23.2259   
   10.96478x     23.1520   
   11.22018x     23.0759   
   11.48154x     22.9976   
   11.74898x     22.9171   
   12.02264x     22.8344   
   12.30269x     22.7494   
   12.58925x     22.6622   
   12.88250x     22.5728   
   13.18257x     22.4810   
   13.48963x     22.3870   
   13.80384x     22.2906   
   14.12538x     22.1920   
   14.45440x     22.0911   
   14.79108x     21.9878   
   15.13561x     21.8823   
   15.48817x     21.7745   
   15.84893x     21.6644   
   16.21810x     21.5520   
   16.59587x     21.4374   
   16.98244x     21.3205   
   17.37801x     21.2014   
   17.78279x     21.0801   
   18.19701x     20.9566   
   18.62087x     20.8310   
   19.05461x     20.7032   
   19.49845x     20.5734   
   19.95262x     20.4414   
   20.41738x     20.3074   
   20.89296x     20.1714   
   21.37962x     20.0334   
   21.87762x     19.8934   
   22.38721x     19.7516   
   22.90868x     19.6079   
   23.44229x     19.4623   
   23.98833x     19.3149   
   24.54709x     19.1658   
   25.11886x     19.0150   
   25.70396x     18.8625   
   26.30268x     18.7083   
   26.91535x     18.5526   
   27.54229x     18.3953   
   28.18383x     18.2365   
   28.84032x     18.0762   
   29.51209x     17.9145   
   30.19952x     17.7514   
   30.90295x     17.5870   
   31.62278x     17.4212   
   32.35937x     17.2542   
   33.11311x     17.0859   
   33.88442x     16.9165   
   34.67369x     16.7459   
   35.48134x     16.5741   
   36.30781x     16.4013   
   37.15352x     16.2275   
   38.01894x     16.0527   
   38.90451x     15.8769   
   39.81072x     15.7001   
   40.73803x     15.5225   
   41.68694x     15.3440   
   42.65795x     15.1647   
   43.65158x     14.9845   
   44.66836x     14.8036   
   45.70882x     14.6220   
   46.77351x     14.4396   
   47.86301x     14.2565   
   48.97788x     14.0728   
   50.11872x     13.8885   
   51.28614x     13.7036   
   52.48075x     13.5180   
   53.70318x     13.3320   
   54.95409x     13.1454   
   56.23413x     12.9583   
   57.54399x     12.7707   
   58.88437x     12.5827   
   60.25596x     12.3942   
   61.65950x     12.2053   
   63.09573x     12.0160   
   64.56542x     11.8264   
   66.06934x     11.6363   
   67.60830x     11.4460   
   69.18310x     11.2553   
   70.79458x     11.0643   
   72.44360x     10.8730   
   74.13102x     10.6815   
   75.85776x     10.4897   
   77.62471x     10.2977   
   79.43282x     10.1054   
   81.28305x      9.9130   
   83.17638x      9.7203   
   85.11380x      9.5275   
   87.09636x      9.3345   
   89.12509x      9.1414   
   91.20108x      8.9481   
   93.32543x      8.7547   
   95.49926x      8.5612   
   97.72372x      8.3676   
  100.00000x      8.1739   
y

          ***** job concluded
1****** HSPICE -- B-2008.09-SP1 32-BIT (Nov 24 2008) linux ******               
 ******  
 *3.1

  ******  job statistics summary tnom=  25.000 temp=  25.000 *****

  ******  HSPICE Threads Information  ******
  Command Line Threads Count:                      0
  Available CPU Count:                             8
  Actual Model Evaluation(Load) Threads Count:     1
  Actual Solver Threads Count:                     1


  ******  Circuit Statistics  ******
  # nodes       =      16  # elements   =      10
  # resistors   =       2  # capacitors =       0  # inductors   =       0
  # mutual_inds =       0  # vccs       =       0  # vcvs        =       0
  # cccs        =       0  # ccvs       =       0  # volt_srcs   =       3
  # curr_srcs   =       1  # diodes     =       0  # bjts        =       0
  # jfets       =       0  # mosfets    =       4  # U elements  =       0
  # T elements  =       0  # W elements =       0  # B elements  =       0
  # S elements  =       0  # P elements =       0  # va device   =       0


  ******  Runtime Statistics (seconds)  ******

  analysis           time    # points   tot. iter  conv.iter
  op point           0.00           1           6
  ac analysis        0.00         801         801
  readin             0.02
  errchk             0.00
  setup              0.00
  output             0.01


           total memory used          210  kbytes
           total cpu time            0.03 seconds
           total elapsed time        0.03 seconds
           job started at     17:15:34 05/05/2016
           job ended   at     17:15:34 05/05/2016


 Init: hspice initialization file: /usr/cad/synopsys/hspice/cur/hspice/hspice.ini
 lic: Release hspice token(s) 
