 ****** HSPICE -- L-2016.06-SP2 linux64 (Nov 23 2016) ******                    
  Copyright (c) 1986 - 2018 by Synopsys, Inc. All Rights Reserved.              
  This software and the associated documentation are proprietary
  to Synopsys, Inc. This software may only be used in accordance
  with the terms and conditions of a written license agreement with
  Synopsys, Inc. All other use, reproduction, or distribution of
  this software is strictly prohibited.
  Input File: 13_psrp.sp                                                        
  Command line options: /usr/cad/synopsys/hspice/2016.06-sp2/hspice/linux64/hspice -i 13_psrp.sp -o 13_psrp.lis
 lic:  
 lic: FLEXlm: v11.2.1 
 lic: USER:   u105060012           HOSTNAME: ws40 
 lic: HOSTID: "6cae8b50b632"       PID:      23606 
 lic: Using FLEXlm license file: 
 lic: 26585@lsnctu 
 lic: Checkout 1 hspice 
 lic: License/Maintenance for hspice will expire on 14-may-2019/2017.12 
 lic: 34(in_use)/90(total) FLOATING license(s) on SERVER 26585@lsnctu 
 lic:   
  **warning** (13_psrp.sp:29) measure result psp_in_db redefined, ignored the previous.
  **info**  the obsolete option acout is ignored
  **info**  the obsolete option acout is ignored
  **warning** (13_psrp.sp:6) runlvl smaller than 5, reset to 5 when accurate turned on

 **warning**  runlvl smaller than 5, reset to 5 when accurate turned on
1****** HSPICE -- L-2016.06-SP2 linux64 (Nov 23 2016) ******                    
 ******  
 psr+

 ****** circuit name directory
 circuit number to circuit name directory
   number circuitname                     definition         multiplier
        0 main circuit
        1 xop.                            aicop              1.00 
 

  
      
 **info** set option symb=1 internally to help for convergence.
 *****************************************************************
 ******  option summary
 ******
 runlvl  = 5         bypass  = 2.0000    
  Opening plot unit= 15
 file=13_psrp.pa0

 **info** dc convergence successful at GMINDC ramping method 
 ******  
 psr+

 ****** operating point information tnom=  25.000 temp=  25.000 ******
 ****** operating point status is all       simulation time is     0.     
    node    =voltage      node    =voltage      node    =voltage

 +0:iref    = 462.8145m 0:vdd     =   1.4000  0:vinn    = 700.0000m
 +0:vinp    = 700.0000m 0:vocm    = 700.0000m 0:von     = 827.6273m
 +0:vop     = 827.6282m 0:vss     =   0.      1:net1    = 197.0513m
 +1:net10   = 715.3062m 1:net11   = 715.3061m 1:net2    = 830.4475m
 +1:net21   = 655.2200m 1:net25   = 850.9594m 1:net26   = 906.0560m
 +1:net3    = 830.4475m 1:net30   = 921.6689m 1:net4    = 462.9416m
 +1:net5    = 462.9416m 1:net6    = 942.0526m 1:net7    = 942.0526m
 +1:net8    = 461.0097m 1:net9    = 461.0097m 1:vb2     = 324.4199m
 +1:vb3     = 457.1112m 1:vcmc    = 699.9899m


 **** voltage sources

 subckt                                                         
 element  0:vdd      0:vgnd     0:vinn     0:vinp     0:vocm    
  volts      1.4000     0.       700.0000m  700.0000m  700.0000m
  current   -1.6681m    1.4878m    0.         0.        14.7779u
  power      2.3353m    0.         0.         0.       -10.3445u

     total voltage source power dissipation=    2.3250m       watts



 **** current sources

 subckt             
 element  0:iref    
  volts    937.1855m
  current   55.0000u
  power    -51.5452u


     total current source power dissipation= -51.5452u       watts

 **** resistors

 subckt                         xop        xop        xop       
 element  0:rload1   0:rload2   1:ro_cm    1:rn_cm    1:rp_cm   
  r value   10.0000k   10.0000k   15.0000k   10.0000k   10.0000k
  v drop   827.6273m  827.6282m  221.6689m  -23.3321m  -23.3312m
  current   82.7627u   82.7628u   14.7779u   -2.3332u   -2.3331u
  power     68.4967u   68.4968u    3.2758u   54.4388n   54.4344n



 **** mosfets


 subckt   xop        xop        xop        xop        xop        xop       
 element  1:m0       1:m11a     1:m11b     1:m12a     1:m12b     1:m13a    
 model    0:n_18.1   0:n_18.1   0:n_18.1   0:p_18.1   0:p_18.1   0:p_18.1  
 region     Saturati   Saturati   Saturati   Saturati   Saturati   Saturati
  id       207.4532u  103.7266u  103.7266u -114.0088u -114.0088u  -10.2821u
  ibs     -6.184e-20   -2.8242f   -2.8242f  2.078e-20  2.078e-20  1.875e-21
  ibd       -5.6482f  -11.9019f  -11.9019f    4.4928f    4.4928f    4.5096f
  vgs      462.8145m  502.9487m  502.9487m -700.0101m -700.0101m -506.0276m
  vds      197.0513m  633.3962m  633.3962m -569.5525m -569.5525m -367.5059m
  vbs        0.      -197.0513m -197.0513m    0.         0.         0.     
  vth      403.0628m  492.6072m  492.6072m -510.3461m -510.3461m -502.6457m
  vdsat     92.6184m   76.0054m   76.0054m -197.8575m -197.8575m  -71.9026m
  vod       59.7517m   10.3415m   10.3415m -189.6640m -189.6640m   -3.3819m
  beta      61.6206m   64.5094m   64.5094m    5.9380m    5.9380m    7.4225m
  gam eff  507.4460m  512.6928m  512.6928m  557.0846m  557.0846m  557.0847m
  gm         3.5096m    2.1021m    2.1021m    1.0124m    1.0124m  200.0575u
  gds       72.9345u   32.7214u   32.7214u    6.3582u    6.3582u  590.4949n
  gmb      722.9625u  351.2509u  351.2509u  303.1264u  303.1264u   59.3074u
  cdtot    329.9273f  140.2793f  140.2793f  118.6694f  118.6694f  192.2029f
  cgtot      1.2962p  275.6531f  275.6531f  580.4821f  580.4821f  814.5319f
  cstot      1.4493p  328.3540f  328.3540f  697.0856f  697.0856f  829.7779f
  cbtot    827.7948f  291.4180f  291.4180f  362.5590f  362.5590f  651.5098f
  cgs        1.0957p  194.1404f  194.1404f  501.9661f  501.9661f  560.5216f
  cgd       75.4787f   37.0499f   37.0499f   32.6610f   32.6610f   50.4415f



 subckt   xop        xop        xop        xop        xop        xop       
 element  1:m13b     1:m14a     1:m14b     1:mc1a     1:mc1b     1:mc2a    
 model    0:p_18.1   0:n_18.1   0:n_18.1   0:n_18.1   0:n_18.1   0:p_18.1  
 region     Saturati   Saturati   Saturati   Saturati   Saturati   Saturati
  id       -10.2821u   10.4398u   10.4398u   15.6395u   15.6395u  -15.7971u
  ibs      1.875e-21 -3.112e-21 -3.112e-21 -5.254e-21 -5.254e-21  2.880e-21
  ibd        4.5096f -663.4848a -663.4848a   -1.1366f   -1.1366f  209.9627a
  vgs     -506.0276m  462.8145m  462.8145m  462.8145m  462.8145m -942.0526m
  vds     -367.5059m  462.9416m  462.9416m  462.9416m  462.9416m -479.1110m
  vbs        0.         0.         0.         0.         0.         0.     
  vth     -502.6457m  428.4106m  428.4106m  420.3511m  420.3511m -492.6950m
  vdsat    -71.9026m   82.2146m   82.2146m   85.3640m   85.3640m -406.1888m
  vod       -3.3819m   34.4039m   34.4039m   42.4634m   42.4634m -449.3576m
  beta       7.4225m    4.4874m    4.4874m    5.9034m    5.9034m  174.6997u
  gam eff  557.0847m  507.4460m  507.4460m  507.4460m  507.4460m  557.0846m
  gm       200.0575u  195.9175u  195.9175u  284.8179u  284.8179u   62.4318u
  gds      590.4949n    2.6205u    2.6205u    3.6177u    3.6177u    2.1334u
  gmb       59.3074u   39.7512u   39.7512u   58.0975u   58.0975u   20.1343u
  cdtot    192.2029f   15.0205f   15.0205f   23.3009f   23.3009f    8.3803f
  cgtot    814.5319f   42.6497f   42.6497f   75.5891f   75.5891f   57.9463f
  cstot    829.7779f   49.7577f   49.7577f   87.3951f   87.3951f   66.8794f
  cbtot    651.5098f   35.1819f   35.1819f   57.0919f   57.0919f   28.4949f
  cgs      560.5216f   33.7050f   33.7050f   61.4162f   61.4162f   51.3707f
  cgd       50.4415f    3.6488f    3.6488f    5.5107f    5.5107f    2.5567f



 subckt   xop        xop        xop        xop        xop        xop       
 element  1:mc2b     1:mc3a     1:mc3b     1:m21a     1:m21b     1:m22a    
 model    0:p_18.1   0:p_18.1   0:p_18.1   0:n_18.1   0:n_18.1   0:p_18.1  
 region     Saturati   Saturati   Saturati   Saturati   Saturati   Saturati
  id       -15.7971u  -15.7971u  -15.7971u   27.0845u   27.0845u  -27.0845u
  ibs      2.880e-21  2.880e-21  2.880e-21 -7.390e-21 -7.390e-21  4.938e-21
  ibd      209.9627a  200.6880a  200.6880a   -1.4515f   -1.4515f  823.0013a
  vgs     -942.0526m -942.8888m -942.8888m  462.9416m  462.9416m -942.8888m
  vds     -479.1110m -457.9474m -457.9474m  461.0097m  461.0097m -938.9903m
  vbs        0.         0.         0.         0.         0.         0.     
  vth     -492.6950m -492.6950m -492.6950m  415.2650m  415.2650m -486.8413m
  vdsat   -406.1888m -406.8883m -406.8883m   87.7202m   87.7202m -410.3052m
  vod     -449.3576m -450.1938m -450.1938m   47.6766m   47.6766m -456.0475m
  beta     174.6997u  174.6679u  174.6679u    9.3661m    9.3661m  286.7984u
  gam eff  557.0846m  557.0846m  557.0846m  507.4460m  507.4460m  557.0846m
  gm        62.4318u   61.8188u   61.8188u  482.5825u  482.5825u  108.0120u
  gds        2.1334u    2.8214u    2.8214u    6.1576u    6.1576u  538.5050n
  gmb       20.1343u   19.9751u   19.9751u   98.5068u   98.5068u   34.9833u
  cdtot      8.3803f    8.8695f    8.8695f   35.5997f   35.5997f   12.4631f
  cgtot     57.9463f   58.1068f   58.1068f  121.7025f  121.7025f  139.7335f
  cstot     66.8794f   66.8813f   66.8813f  139.6379f  139.6379f  162.2402f
  cbtot     28.4949f   28.5472f   28.5472f   87.5500f   87.5500f   64.1959f
  cgs       51.3707f   51.3675f   51.3675f   99.9062f   99.9062f  125.8485f
  cgd        2.5567f    2.7610f    2.7610f    8.6840f    8.6840f    3.6791f



 subckt   xop        xop        xop        xop        xop        xop       
 element  1:m22b     1:m31a     1:m31b     1:m32a     1:m32b     1:m33a    
 model    0:p_18.1   0:n_18.1   0:n_18.1   0:p_18.1   0:p_18.1   0:p_18.1  
 region     Saturati   Saturati   Saturati   Saturati   Saturati   Saturati
  id       -27.0845u   11.0719u   11.0719u  -11.0719u  -11.0719u -330.6174u
  ibs      4.938e-21 -3.301e-21 -3.301e-21  2.018e-21  2.018e-21  6.363e-20
  ibd      823.0013a   -1.0252f   -1.0252f  600.1184a  600.1185a   11.9156f
  vgs     -942.8888m  461.0097m  461.0097m -684.6938m -684.6939m -684.6938m
  vds     -938.9903m  715.3062m  715.3061m -684.6938m -684.6939m -572.3727m
  vbs        0.         0.         0.         0.         0.         0.     
  vth     -486.8413m  415.2446m  415.2446m -510.3460m -510.3460m -520.7365m
  vdsat   -410.3052m   86.8554m   86.8554m -185.6251m -185.6252m -182.2394m
  vod     -456.0475m   45.7651m   45.7651m -174.3477m -174.3478m -163.9573m
  beta     286.7984u    3.8949m    3.8949m  662.1780u  662.1780u   21.2811m
  gam eff  557.0846m  507.4460m  507.4460m  557.0846m  557.0846m  557.0846m
  gm       108.0120u  198.5403u  198.5404u  104.9912u  104.9912u    3.2591m
  gds      538.5050n    2.3265u    2.3265u  528.0993n  528.0996n   25.0346u
  gmb       34.9833u   40.3023u   40.3024u   31.3468u   31.3468u  962.5136u
  cdtot     12.4631f   14.3041f   14.3041f   12.8435f   12.8435f  299.1419f
  cgtot    139.7335f   50.3419f   50.3419f   64.3809f   64.3809f    1.0314p
  cstot    162.2402f   57.9556f   57.9556f   77.3334f   77.3334f    1.2839p
  cbtot     64.1959f   36.2068f   36.2068f   40.0164f   40.0164f  773.8331f
  cgs      125.8485f   41.1317f   41.1317f   55.6150f   55.6150f  870.5808f
  cgd        3.6791f    3.6140f    3.6140f    3.6066f    3.6066f   81.1864f



 subckt   xop        xop        xop        xop        xop        xop       
 element  1:m33b     1:m34a     1:m34b     1:mb0      1:mb1      1:mb2     
 model    0:p_18.1   0:n_18.1   0:n_18.1   0:n_18.1   0:p_18.1   0:n_18.1  
 region     Saturati   Saturati   Saturati   Saturati   Saturati   Saturati
  id      -330.6176u  250.1877u  250.1878u   55.0000u -267.2928u  267.2928u
  ibs      6.363e-20 -7.879e-20 -7.879e-20 -1.501e-20  4.873e-20 -7.294e-20
  ibd       11.9156f  -28.1947f  -28.1947f   -2.9143f    2.8281f  -10.2142f
  vgs     -684.6939m  462.9416m  462.9416m  462.8145m   -1.0756   462.8145m
  vds     -572.3718m  827.6273m  827.6282m  462.8145m   -1.0756   324.4199m
  vbs        0.         0.         0.         0.         0.         0.     
  vth     -520.7365m  426.1460m  426.1460m  398.8257m -510.3507m  399.8754m
  vdsat   -182.2395m   83.5950m   83.5950m   94.9141m -509.5688m   94.2988m
  vod     -163.9573m   36.7956m   36.7956m   63.9888m -565.2294m   62.9391m
  beta      21.2811m  100.8361m  100.8361m   14.8175m    1.8224m   74.0902m
  gam eff  557.0846m  507.4460m  507.4460m  507.4460m  557.0845m  507.4460m
  gm         3.2591m    4.6401m    4.6401m  914.9631u  845.3971u    4.4704m
  gds       25.0346u   55.6790u   55.6790u   10.6927u    9.9552u   59.2067u
  gmb      962.5140u  932.9937u  932.9938u  187.2404u  272.5161u  917.8424u
  cdtot    299.1419f  318.5832f  318.5832f   71.2553f   36.2729f  369.3565f
  cgtot      1.0315p  969.3167f  969.3168f  312.4966f  193.4995f    1.5608p
  cstot      1.2839p    1.1363p    1.1363p  351.2484f  233.1801f    1.7512p
  cbtot    773.8331f  776.3359f  776.3358f  191.6583f  115.4133f  969.6247f
  cgs      870.5808f  769.0400f  769.0401f  265.3949f  169.6647f    1.3248p
  cgd       81.1864f   81.8791f   81.8791f   17.1929f   10.8602f   86.7514f



 subckt   xop        xop        xop        xop        xop        xop       
 element  1:mb3      1:mb4      1:mcm1     1:mcm2     1:mcm3     1:mcm4    
 model    0:p_18.1   0:n_18.1   0:p_18.1   0:p_18.1   0:n_18.1   0:p_18.1  
 region     Saturati   Saturati   Saturati   Saturati   Saturati   Saturati
  id      -274.6947u  274.6946u   -8.8251u   -4.1587u    4.1587u  -37.3569u
  ibs      5.008e-20 -7.496e-20  1.609e-21  7.582e-22 -1.240e-21  5.105e-21
  ibd        4.1321f  -14.3920f  192.4876a  514.6841a -375.6233a  502.8471a
  vgs     -942.8888m  462.8145m -744.7800m -526.5395m  457.1112m -744.7800m
  vds     -942.8888m  457.1112m -549.0406m -195.7394m  655.2200m -478.3311m
  vbs        0.         0.         0.         0.         0.         0.     
  vth     -510.3487m  398.8689m -516.3313m -516.3300m  399.5852m -507.6957m
  vdsat   -398.3856m   94.8887m -232.0725m  -77.3633m   91.3384m -233.8693m
  vod     -432.5401m   63.9455m -228.4487m  -10.2095m   57.5260m -237.0842m
  beta       3.1218m   74.0874m  326.5145u    2.5649m    1.2320m    1.3308m
  gam eff  557.0846m  507.4460m  557.0846m  557.0847m  507.4460m  557.0846m
  gm         1.1354m    4.5708m   66.7287u   78.5274u   71.1688u  272.9483u
  gds       10.9383u   53.5806u  643.9733n  745.7079n  778.0437n    3.2843u
  gmb      357.3465u  935.5141u   20.0284u   22.9092u   14.5233u   82.4492u
  cdtot     61.6191f  356.7422f    5.3053f   43.4714f    5.7856f   20.4719f
  cgtot    322.6871f    1.5624p   20.8905f  116.7077f   25.6416f   84.0578f
  cstot    388.6155f    1.7561p   25.5660f  129.8289f   28.8475f  101.0076f
  cbtot    194.8169f  958.7214f   14.4274f  110.9339f   15.9263f   55.2417f
  cgs      281.7069f    1.3269p   17.8719f   81.6188f   21.6066f   72.2751f
  cgd       18.0901f   85.9808f    1.4551f   10.9503f    1.4310f    5.8786f



 subckt   xop        xop        xop        xop        xop       
 element  1:mcm5     1:mcm6     1:mcm7     1:mcm8     1:mcm9    
 model    0:p_18.1   0:n_18.1   0:p_18.1   0:p_18.1   0:n_18.1  
 region     Saturati   Saturati   Saturati   Saturati   Saturati
  id       -22.5789u    8.3871u  -27.7437u  -27.7437u   41.9355u
  ibs      4.116e-21 -2.500e-21  5.058e-21  5.058e-21 -1.250e-20
  ibd      971.4822a -802.5779a  952.4454a    1.6255f   -4.0129f
  vgs     -597.2491m  457.1112m -700.0101m -581.6361m  457.1112m
  vds     -221.6791m  699.9899m -493.9440m -206.0661m  699.9899m
  vbs        0.         0.         0.         0.         0.     
  vth     -516.3302m  399.2454m -510.3461m -510.3456m  399.2454m
  vdsat   -117.9131m   91.5330m -197.8570m -109.8583m   91.5330m
  vod      -80.9188m   57.8658m -189.6640m  -71.2906m   57.8658m
  beta       4.2213m    2.4640m    1.4515m    6.0997m   12.3201m
  gam eff  557.0847m  507.4460m  557.0846m  557.0847m  507.4460m
  gm       323.5548u  143.2370u  246.2578u  415.8287u  716.1848u
  gds        4.4629u    1.5540u    1.7723u    5.5599u    7.7699u
  gmb       94.5989u   29.1994u   73.7184u  122.2657u  145.9970u
  cdtot     73.3860f   11.4774f   29.6102f  134.0837f   57.3870f
  cgtot    248.6680f   51.3242f  141.9789f  544.9655f  256.6208f
  cstot    297.9767f   57.7492f  170.3624f  635.6477f  288.7458f
  cbtot    186.5053f   31.7614f   89.1021f  374.3088f  158.8068f
  cgs      205.6562f   43.2565f  122.7485f  452.3849f  216.2824f
  cgd       18.8742f    2.8610f    8.0438f   34.6047f   14.3050f



 ******
 psr+

 ****** ac analysis tnom=  25.000 temp=  25.000 ******
 psp_in_db=-136.5375 

          ***** job concluded
 ******  
 psr+

 ****** job statistics summary tnom=  25.000 temp=  25.000 ******
  
  
 ******  Machine Information  ******
 CPU:
 model name	: Intel(R) Xeon(R) CPU E5-2620 0 @ 2.00GHz
 cpu MHz	: 1200.000
  
 OS:
 Linux version 2.6.18-371.9.1.el5 (mockbuild@builder17.centos.org) (gcc version 4.1.2 20080704 (Red Hat 4.1.2-54)) #1 SMP Tue Jun 10 17:49:56 EDT 2014


  ******  HSPICE Threads Information  ******

  Command Line Threads Count :     1
  Available CPU Count        :    12
  Actual Threads Count       :     1


  ******  Circuit Statistics  ******
  # nodes       =     109 # elements   =      58
  # resistors   =       5 # capacitors =       6 # inductors   =       0
  # mutual_inds =       0 # vccs       =       0 # vcvs        =       0
  # cccs        =       0 # ccvs       =       0 # volt_srcs   =       5
  # curr_srcs   =       1 # diodes     =       0 # bjts        =       0
  # jfets       =       0 # mosfets    =      41 # U elements  =       0
  # T elements  =       0 # W elements =       0 # B elements  =       0
  # S elements  =       0 # P elements =       0 # va device   =       0
  # vector_srcs =       0 # N elements =       0


  ******  Runtime Statistics (seconds)  ******

  analysis           time    # points   tot. iter  conv.iter
  op point           0.06           1         240
  ac analysis        0.01          81          81
  readin             0.04
  errchk             0.01
  setup              0.00
  output             0.00


           peak memory used        202.29 megabytes
           total cpu time            0.12 seconds
           total elapsed time        0.75 seconds
           job started at     00:02:23 06/26/2018
           job ended   at     00:02:24 06/26/2018


  **warning** (13_psrp.sp:29) measure result psp_in_db redefined, ignored the previous.
  **info**  the obsolete option acout is ignored
  **info**  the obsolete option acout is ignored
  **warning** (13_psrp.sp:6) runlvl smaller than 5, reset to 5 when accurate turned on

 **warning**  runlvl smaller than 5, reset to 5 when accurate turned on
 ******  
 psr+

 ****** circuit name directory
 circuit number to circuit name directory
   number circuitname                     definition         multiplier
        0 main circuit
        1 xop.                            aicop              1.00 
 ***************************************************************************
 ***        model parameters  model name:   0:n_18.1   model type:nmos   ***
 ***************************************************************************

   *** general parameters ***
    deriv=   0.           

   ***  level 49  model parameters  ***

      hspver=    2006.03               level=         49         
     version=        3.2            paramchk=          0         
      apwarn=          1                lite=          0         
      vgslim=          0             binUnit=          1         
      capMod=          2               xpart=          1         
      mobMod=          1              nqsMod=          0         
      stiMod=          0                 elm=          5         
    sfvtflag=          0                 tox=   4.08e-09 meter   
          xj=    1.6e-07 meter       binflag=          0         
        lmin=    1.8e-07 meter          lmax=      5e-05 meter   
        wmin=    2.5e-07 meter          wmax=     0.0001 meter   
        lref=          0 meter          wref=          0 meter   
        lint=  1.587e-08 meter          wint=  1.022e-08 meter   
       lmult=          1               wmult=          1         
          ll= -1.062e-15                 lln=          1         
          lw=  2.996e-15                 lwn=          1         
         lwl=          0                  wl=          0         
         wln=          1                  ww=  7.262e-16         
         wwn=          1                 wwl=          0         
         dwg= -3.396e-09 m/V             dwb=  1.346e-09 m/V^1/2 
          xl=  -2.31e-08                  xw=    2.2e-08         
          a0=       1.93                 ags=     0.5072 V^-1    
          b0=  1.486e-06 meter            b1=  9.064e-06 meter   
        keta=    0.01752 V^-1           voff=    -0.1088 V       
       ngate=      1e+23 cm^-3           vbx=          0 V       
         vbm=         -3 V                xt=   1.55e-07 meter   
        vth0=      0.295 V               nch= 3.7446e+17 cm^-3   
        nsub=      6e+16 cm^-3           nlx=  4.279e-07 meter   
      gamma1=          0 V^-1/2       gamma2=          0 V^-1/2  
          k1=     0.4578 V^1/2            k2=   -0.02638         
          k3=     -10.88                 k3b=     0.2379 V^-1    
          w0= -8.813e-08 meter          dvt0=     0.4042         
        dvt1=     0.3237                dvt2=    -0.8602 V^-1    
       dvt0w=      0.383 meter^-1      dvt1w=     600000 meter^-1
       dvt2w=     -0.025 V^-1           dsub=   0.001592         
        eta0=   0.001004                etab=  -0.001459 V^-1    
          u0=      336.1 cm^2/V/sec         ua= -9.201e-10 m/V     
          ub=  1.907e-18 (m/V)^2          uc=  4.355e-11 V^-1    
        vsat=      72580 m/sec            a1=          0 v^-1    
          a2=          1               delta=       0.01 V       
        rdsw=      4.905 ohm-um         prwg=          0 V^-1    
        prwb=          0 V^-1/2           wr=          1         
        pclm=      1.091             pdiblc1=   0.003061         
     pdiblc2=      1e-06             pdiblcb=          0 V^-1    
      pscbe1=  4.866e+08 V/m          pscbe2=    2.8e-07 V/m     
       drout=   0.001592                pvag=    -0.2958         
     nfactor=      1.038                cdsc=   0.002275 f/m^2   
       cdscb=  0.0008241 f/V/m^2       cdscd=    -0.0005 f/V/m^2 
         cit=  -0.001511 f/m^2        alpha0=          0 m/V     
       beta0=         30 V               dlc=      4e-08 meter   
         dwc=          0 meter           clc=      1e-07 meter   
         cle=        0.6                cgso=  2.575e-10 f/m     
        cgdo=  2.575e-10 f/m            cgbo=          0 f/m     
        cgsl=          0 f/m            cgdl=          0 f/m     
      ckappa=        0.6                  cf=  1.533e-10 f/m     
        acde=          1 m/V            moin=         15 V^1/2   
        toxm=    4.2e-09 m            dtoxcv=          0 m       
         vfb (not used)                alpha1=          0 1/V     
        ijth=          0 A              noff=          1         
      voffcv=          0                 tcj=          0 1/K     
       tcjsw=          0 1/K          tcjswg=          0 1/K     
         tpb=          0 V/K           tpbsw=          0 V/K     
      tpbswg=          0 V/K             llc=  -6.64e-15         
         lwc=          0                lwlc=          0         
         wlc=          0                 wwc=          0         
        wwlc=          0                tnom=     298.15 K       
         kt1=    -0.2255 V              kt1l= -4.275e-09         
         kt2=   -0.02527                 ute=     -1.186         
         ua1=  2.253e-09 m/V             ub1= -2.673e-18 (m/V)^2 
         uc1= -3.832e-11 m/V^2            at=      14490 m/s     
         prt=     -10.18         
         using Berkeley noise model       noiMod=          1         
        noia=      1e+20                noib=      50000         
        noic=   -1.4e-12                  em=    4.2e+07         
          ef=          1                  af=          1         
          kf=          0              gdsnoi=-1.23457e-29         
         using Hspice diodes            using ACM 
         acm=         3                 hdif=   2.6e-07 meter    
        ldif=     8e-08 meter             js=     1e-06 amp/m^2  
         jsw=     7e-11 amp/m            xti=         3          
           n=         1                   cj=  0.000907 f/m^2    
          mj=     0.443                   pb=     0.823 V        
        cjsw= 1.216e-10 f/m             mjsw=      0.33          
         php=      0.88 V               pbsw (not used)           
      cjgate=  4.48e-10 f/m            cjswg (not used)           
       mjswg (not used)                 pbswg (not used)           
         la0=    -0.4667                lags=     0.3028         
       lketa=   -0.01942               lvoff=  -0.004208         
       lvth0=   -0.00172                lnlx= -2.854e-08         
       leta0=   0.001574            lpdiblc2=  -0.004752         
         wa0=   -0.04731                wags=   0.004242         
       wvoff= -0.0004078               wvth0=    0.04817         
         wu0=       2.74                 wua=  -1.88e-11         
       wvsat=       5066                wute=    0.06373         
         wat=       7067                 pa0=   -0.02649         
       pvoff= -0.0003788               pvth0=    0.00062         
         pw0=    1.3e-09                 pub=    3.8e-20         
       pvsat=        -82         
 ***************************************************************************
 ***        model parameters  model name:   0:p_18.1   model type:pmos   ***
 ***************************************************************************

   *** general parameters ***
    deriv=   0.           

   ***  level 49  model parameters  ***

      hspver=    2006.03               level=         49         
     version=        3.2            paramchk=          0         
      apwarn=          1                lite=          0         
      vgslim=          0             binUnit=          1         
      capMod=          2               xpart=          1         
      mobMod=          3              nqsMod=          0         
      stiMod=          0                 elm=          5         
    sfvtflag=          0                 tox=   4.05e-09 meter   
          xj=      1e-07 meter       binflag=          0         
        lmin=    1.8e-07 meter          lmax=      5e-05 meter   
        wmin=    2.5e-07 meter          wmax=     0.0001 meter   
        lref=          0 meter          wref=          0 meter   
        lint= -1.041e-08 meter          wint= -1.525e-07 meter   
       lmult=          1               wmult=          1         
          ll=  6.635e-15                 lln=          1         
          lw= -2.873e-16                 lwn=          1         
         lwl=          0                  wl=          0         
         wln=          1                  ww=  1.236e-14         
         wwn=          1                 wwl=          0         
         dwg= -1.251e-07 m/V             dwb= -1.039e-07 m/V^1/2 
          xl=  -1.05e-08                  xw=    1.5e-08         
          a0=       1.35                 ags=     0.3818 V^-1    
          b0= -3.088e-07 meter            b1=          0 meter   
        keta=    0.01044 V^-1           voff=    -0.1073 V       
       ngate=      1e+23 cm^-3           vbx=          0 V       
         vbm=         -3 V                xt=   1.55e-07 meter   
        vth0=    -0.4405 V               nch=  6.231e+17 cm^-3   
        nsub=      6e+16 cm^-3           nlx=   2.53e-07 meter   
      gamma1=          0 V^-1/2       gamma2=          0 V^-1/2  
          k1=     0.5704 V^1/2            k2=   0.006973         
          k3=     -2.833                 k3b=      1.326 V^-1    
          w0= -1.943e-07 meter          dvt0=     0.4885         
        dvt1=    0.07578                dvt2=     0.1187 V^-1    
       dvt0w=    -0.1261 meter^-1      dvt1w=      24790 meter^-1
       dvt2w=     0.6915 V^-1           dsub=     1.9191         
        eta0=      1.071                etab=    -0.9291 V^-1    
          u0=        128 cm^2/V/sec         ua=   1.54e-09 m/V     
          ub=  2.646e-19 (m/V)^2          uc=   -0.09587 V^-1    
        vsat=      53400 m/sec            a1=          0 v^-1    
          a2=          1               delta=       0.01 V       
        rdsw=      792.1 ohm-um         prwg=          0 V^-1    
        prwb=          0 V^-1/2           wr=          1         
        pclm=      2.653             pdiblc1=          0         
     pdiblc2=      5e-06             pdiblcb=          0 V^-1    
      pscbe1=  4.866e+08 V/m          pscbe2=    2.8e-07 V/m     
       drout=      1.457                pvag=      1.262         
     nfactor=      1.535                cdsc=  0.0007578 f/m^2   
       cdscb=     0.0001 f/V/m^2       cdscd= -2.883e-05 f/V/m^2 
         cit=  -0.001067 f/m^2        alpha0=          0 m/V     
       beta0=         30 V               dlc=   7.01e-08 meter   
         dwc=          0 meter           clc=      1e-07 meter   
         cle=        0.6                cgso= 2.3094e-10 f/m     
        cgdo= 2.3094e-10 f/m            cgbo=          0 f/m     
        cgsl=          0 f/m            cgdl=          0 f/m     
      ckappa=        0.6                  cf=  1.533e-10 f/m     
        acde=          1 m/V            moin=         15 V^1/2   
        toxm=    4.2e-09 m            dtoxcv=          0 m       
         vfb (not used)                alpha1=          0 1/V     
        ijth=          0 A              noff=          1         
      voffcv=          0                 tcj=          0 1/K     
       tcjsw=          0 1/K          tcjswg=          0 1/K     
         tpb=          0 V/K           tpbsw=          0 V/K     
      tpbswg=          0 V/K             llc=  -1.31e-14         
         lwc=          0                lwlc=          0         
         wlc=          0                 wwc=          0         
        wwlc=          0                tnom=     298.15 K       
         kt1=    -0.2294 V              kt1l= -8.204e-09         
         kt2=  -0.009487                 ute=    -0.4484         
         ua1=  4.571e-09 m/V             ub1= -6.026e-18 (m/V)^2 
         uc1=    -0.0985 m/V^2            at=      12030 m/s     
         prt=          0         
         using Berkeley noise model       noiMod=          1         
        noia=      1e+20                noib=      50000         
        noic=   -1.4e-12                  em=    4.2e+07         
          ef=          1                  af=          1         
          kf=          0              gdsnoi=-1.23457e-29         
         using Hspice diodes            using ACM 
         acm=         3                 hdif=   2.6e-07 meter    
        ldif=     8e-08 meter             js=     3e-06 amp/m^2  
         jsw=  4.22e-11 amp/m            xti=         3          
           n=         1                   cj=  0.001086 f/m^2    
          mj=     0.395                   pb=     0.762 V        
        cjsw= 1.586e-10 f/m             mjsw=     0.324          
         php=     0.665 V               pbsw (not used)           
      cjgate= 1.586e-10 f/m            cjswg (not used)           
       mjswg (not used)                 pbswg (not used)           
         la0=     -0.281                lags=    0.04454         
       lketa=     -0.012               lvoff= -0.0009871         
       lvth0=     0.0029                lnlx= -1.584e-08         
         lua= -8.253e-11            lpdiblc2=   0.003012         
         wa0=   -0.04807                wags=   -0.04277         
       wvoff=  -0.009816               wvth0=    -0.0063         
         wua=   2.63e-09               wvsat=     -14200         
       wrdsw=      10.07                wute=    -0.2682         
         wat=      -6405                wprt=      226.6         
         pa0=    0.08661                pags=   -0.04076         
       pvoff= -9.833e-05               pvth0=   0.003215         
         pua=  5.855e-11               pvsat=       -459         
  
      
 **info** set option symb=1 internally to help for convergence.
 *****************************************************************
 ******  option summary
 ******
 runlvl  = 5         bypass  = 2.0000    
  Opening plot unit= 15
 file=13_psrp.pa1

 **info** dc convergence successful at GMINDC ramping method 
 ******  
 psr+

 ****** operating point information tnom=  25.000 temp=  25.000 ******
 ****** operating point status is all       simulation time is     0.     
    node    =voltage      node    =voltage      node    =voltage

 +0:iref    = 421.3083m 0:vdd     =   1.4000  0:vinn    = 700.0000m
 +0:vinp    = 700.0000m 0:vocm    = 700.0000m 0:von     = 483.3470m
 +0:vop     = 483.3464m 0:vss     =   0.      1:net1    = 233.7080m
 +1:net10   = 791.4004m 1:net11   = 791.4005m 1:net2    = 854.6333m
 +1:net21   =  42.8876m 1:net25   = 895.7980m 1:net26   = 926.9248m
 +1:net3    = 854.6333m 1:net30   =   1.1549  1:net4    = 423.0956m
 +1:net5    = 423.0956m 1:net6    = 884.0878m 1:net7    = 884.0878m
 +1:net8    = 402.9361m 1:net9    = 402.9361m 1:vb2     = 389.1875m
 +1:vb3     = 517.4013m 1:vcmc    = 746.6064m


 **** voltage sources

 subckt                                                         
 element  0:vdd      0:vgnd     0:vinn     0:vinp     0:vocm    
  volts      1.4000     0.       700.0000m  700.0000m  700.0000m
  current   -1.8131m    1.6861m    0.         0.        30.3283u
  power      2.5383m    0.         0.         0.       -21.2298u

     total voltage source power dissipation=    2.5171m       watts



 **** current sources

 subckt             
 element  0:iref    
  volts    978.6917m
  current   55.0000u
  power    -53.8280u


     total current source power dissipation= -53.8280u       watts

 **** resistors

 subckt                         xop        xop        xop       
 element  0:rload1   0:rload2   1:ro_cm    1:rn_cm    1:rp_cm   
  r value   10.0000k   10.0000k   15.0000k   10.0000k   10.0000k
  v drop   483.3470m  483.3464m  454.9245m -412.4510m -412.4516m
  current   48.3347u   48.3346u   30.3283u  -41.2451u  -41.2452u
  power     23.3624u   23.3624u   13.7971u   17.0116u   17.0116u



 **** mosfets


 subckt   xop        xop        xop        xop        xop        xop       
 element  1:m0       1:m11a     1:m11b     1:m12a     1:m12b     1:m13a    
 model    0:n_18.1   0:n_18.1   0:n_18.1   0:p_18.1   0:p_18.1   0:p_18.1  
 region     Saturati   Saturati   Saturati   Saturati   Saturati   Saturati
  id       218.6174u  109.3087u  109.3087u -120.8510u -120.8510u  -11.5422u
  ibs     -6.446e-20   -3.3858f   -3.3858f  2.187e-20  2.187e-20  2.089e-21
  ibd       -6.7715f  -12.3812f  -12.3812f    4.3342f    4.3342f    5.3349f
  vgs      421.3083m  466.2920m  466.2920m -653.3936m -653.3936m -465.4459m
  vds      233.7080m  620.9253m  620.9253m -545.3667m -545.3667m -431.5378m
  vbs        0.      -233.7080m -233.7080m    0.         0.         0.     
  vth      365.2981m  459.6514m  459.6514m -469.4069m -469.4069m -461.5889m
  vdsat     90.9807m   74.8833m   74.8833m -194.2763m -194.2763m  -72.3025m
  vod       56.0102m    6.6406m    6.6406m -183.9868m -183.9868m   -3.8570m
  beta      68.4320m   72.8634m   72.8634m    6.6061m    6.6061m    8.2645m
  gam eff  507.4460m  513.6145m  513.6145m  557.0846m  557.0846m  557.0847m
  gm         3.7788m    2.2465m    2.2465m    1.0966m    1.0966m  225.6728u
  gds       62.5540u   35.8951u   35.8951u    7.1665u    7.1665u  615.3728n
  gmb      754.6798u  352.6242u  352.6242u  317.1071u  317.1071u   64.5907u
  cdtot    307.2686f  133.8077f  133.8077f  113.8874f  113.8874f  180.1076f
  cgtot      1.3352p  277.7915f  277.7915f  607.4913f  607.4913f  853.4136f
  cstot      1.4532p  312.1404f  312.1404f  708.4633f  708.4633f  845.3431f
  cbtot    783.2918f  268.3045f  268.3045f  346.1310f  346.1310f  624.3612f
  cgs        1.1243p  192.0432f  192.0432f  525.0905f  525.0905f  591.9206f
  cgd       79.8467f   40.1981f   40.1981f   35.5395f   35.5395f   54.7508f



 subckt   xop        xop        xop        xop        xop        xop       
 element  1:m13b     1:m14a     1:m14b     1:mc1a     1:mc1b     1:mc2a    
 model    0:p_18.1   0:n_18.1   0:n_18.1   0:n_18.1   0:n_18.1   0:p_18.1  
 region     Saturati   Saturati   Saturati   Saturati   Saturati   Saturati
  id       -11.5422u   10.7912u   10.7912u   17.0444u   17.0444u  -16.2934u
  ibs      2.089e-21 -3.182e-21 -3.182e-21 -5.640e-21 -5.640e-21  2.948e-21
  ibd        5.3349f -612.9415a -612.9415a   -1.0512f   -1.0512f  203.5353a
  vgs     -465.4459m  421.3083m  421.3083m  421.3083m  421.3083m -884.0878m
  vds     -431.5378m  423.0956m  423.0956m  423.0956m  423.0956m -460.9922m
  vbs        0.         0.         0.         0.         0.         0.     
  vth     -461.5889m  391.1061m  391.1061m  380.5377m  380.5377m -451.5816m
  vdsat    -72.3025m   80.4743m   80.4743m   84.8750m   84.8750m -394.1359m
  vod       -3.8570m   30.2023m   30.2023m   40.7706m   40.7706m -432.5062m
  beta       8.2645m    5.0166m    5.0166m    6.6281m    6.6281m  193.1461u
  gam eff  557.0847m  507.4460m  507.4460m  507.4460m  507.4460m  557.0846m
  gm       225.6728u  206.4517u  206.4517u  313.3769u  313.3769u   66.3169u
  gds      615.3728n    2.8337u    2.8337u    4.0893u    4.0893u    2.4498u
  gmb       64.5907u   40.6475u   40.6475u   62.0216u   62.0216u   20.7190u
  cdtot    180.1076f   14.4535f   14.4535f   22.5145f   22.5145f    8.2964f
  cgtot    853.4136f   43.4247f   43.4247f   78.5397f   78.5397f   60.8037f
  cstot    845.3431f   48.5782f   48.5782f   87.5922f   87.5922f   68.7598f
  cbtot    624.3612f   33.1851f   33.1851f   54.3099f   54.3099f   27.7370f
  cgs      591.9206f   33.9111f   33.9111f   63.5814f   63.5814f   53.8723f
  cgd       54.7508f    3.9621f    3.9621f    6.0099f    6.0099f    2.8112f



 subckt   xop        xop        xop        xop        xop        xop       
 element  1:mc2b     1:mc3a     1:mc3b     1:m21a     1:m21b     1:m22a    
 model    0:p_18.1   0:p_18.1   0:p_18.1   0:n_18.1   0:n_18.1   0:p_18.1  
 region     Saturati   Saturati   Saturati   Saturati   Saturati   Saturati
  id       -16.2934u  -16.2934u  -16.2934u   27.7520u   27.7520u  -27.7520u
  ibs      2.948e-21  2.948e-21  2.948e-21 -7.510e-21 -7.510e-21  5.022e-21
  ibd      203.5353a  227.7836a  227.7836a   -1.2811f   -1.2811f  880.4462a
  vgs     -884.0878m -882.5987m -882.5987m  423.0956m  423.0956m -882.5987m
  vds     -460.9922m -515.9122m -515.9122m  402.9361m  402.9361m -997.0639m
  vbs        0.         0.         0.         0.         0.         0.     
  vth     -451.5816m -451.5816m -451.5816m  379.8617m  379.8617m -445.7430m
  vdsat   -394.1359m -392.8885m -392.8885m   85.7558m   85.7558m -396.3920m
  vod     -432.5062m -431.0170m -431.0170m   43.2339m   43.2339m -436.8557m
  beta     193.1461u  193.2152u  193.2152u   10.3929m   10.3929m  317.0108u
  gam eff  557.0846m  557.0846m  557.0846m  507.4460m  507.4460m  557.0846m
  gm        66.3169u   67.3545u   67.3545u  505.3209u  505.3209u  114.7701u
  gds        2.4498u    1.3564u    1.3564u    6.7054u    6.7054u  512.0054n
  gmb       20.7190u   20.9841u   20.9841u  100.1967u  100.1967u   35.9927u
  cdtot      8.2964f    7.3891f    7.3891f   34.3097f   34.3097f   11.7914f
  cgtot     60.8037f   60.4962f   60.4962f  124.2041f  124.2041f  146.5095f
  cstot     68.7598f   68.7667f   68.7667f  137.4440f  137.4440f  167.2709f
  cbtot     27.7370f   27.6267f   27.6267f   82.8060f   82.8060f   62.7995f
  cgs       53.8723f   53.8645f   53.8645f  101.1338f  101.1338f  132.0183f
  cgd        2.8112f    2.4359f    2.4359f    9.4003f    9.4003f    3.9699f



 subckt   xop        xop        xop        xop        xop        xop       
 element  1:m22b     1:m31a     1:m31b     1:m32a     1:m32b     1:m33a    
 model    0:p_18.1   0:n_18.1   0:n_18.1   0:p_18.1   0:p_18.1   0:p_18.1  
 region     Saturati   Saturati   Saturati   Saturati   Saturati   Saturati
  id       -27.7520u    8.5977u    8.5977u   -8.5977u   -8.5977u -262.0462u
  ibs      5.022e-21 -2.535e-21 -2.535e-21  1.556e-21  1.556e-21  5.000e-20
  ibd      880.4463a   -1.1465f   -1.1465f  537.4186a  537.4186a   19.2333f
  vgs     -882.5987m  402.9361m  402.9361m -608.5996m -608.5995m -608.5996m
  vds     -997.0639m  791.4004m  791.4005m -608.5996m -608.5995m -916.6530m
  vbs        0.         0.         0.         0.         0.         0.     
  vth     -445.7430m  376.8916m  376.8916m -469.4066m -469.4066m -479.4976m
  vdsat   -396.3920m   77.0690m   77.0690m -158.9638m -158.9638m -155.4707m
  vod     -436.8557m   26.0446m   26.0446m -139.1930m -139.1929m -129.1020m
  beta     317.0108u    4.3391m    4.3391m  742.5788u  742.5788u   23.9991m
  gam eff  557.0846m  507.4460m  507.4460m  557.0846m  557.0846m  557.0846m
  gm       114.7701u  167.6309u  167.6308u   95.2499u   95.2499u    3.0173m
  gds      512.0054n    1.9382u    1.9382u  456.0357n  456.0355n   14.8520u
  gmb       35.9927u   33.0774u   33.0773u   27.3055u   27.3054u  855.7930u
  cdtot     11.7914f   13.5118f   13.5118f   12.4406f   12.4406f  268.5802f
  cgtot    146.5095f   47.8437f   47.8437f   66.9735f   66.9735f    1.0703p
  cstot    167.2709f   52.2791f   52.2791f   77.9697f   77.9697f    1.2816p
  cbtot     62.7995f   34.0153f   34.0153f   38.3776f   38.3776f  713.5418f
  cgs      132.0183f   37.2218f   37.2218f   57.6077f   57.6077f  897.6535f
  cgd        3.9699f    3.9551f    3.9551f    3.9219f    3.9219f   87.9757f



 subckt   xop        xop        xop        xop        xop        xop       
 element  1:m33b     1:m34a     1:m34b     1:mb0      1:mb1      1:mb2     
 model    0:p_18.1   0:n_18.1   0:n_18.1   0:n_18.1   0:p_18.1   0:n_18.1  
 region     Saturati   Saturati   Saturati   Saturati   Saturati   Saturati
  id      -262.0460u  254.9568u  254.9568u   55.0000u -273.1735u  273.1734u
  ibs      5.000e-20 -7.927e-20 -7.927e-20 -1.488e-20  4.943e-20 -7.392e-20
  ibd       19.2333f  -16.6536f  -16.6536f   -2.6791f    2.6777f  -12.3742f
  vgs     -608.5995m  423.0956m  423.0956m  421.3083m   -1.0108   421.3083m
  vds     -916.6536m  483.3470m  483.3464m  421.3083m   -1.0108   389.1875m
  vbs        0.         0.         0.         0.         0.         0.     
  vth     -479.4976m  390.7305m  390.7305m  363.3844m -469.4113m  363.6300m
  vdsat   -155.4706m   81.7008m   81.7008m   91.9203m -491.3030m   91.7790m
  vod     -129.1019m   32.3651m   32.3651m   57.9239m -541.4012m   57.6783m
  beta      23.9991m  113.0976m  113.0976m   16.3781m    2.0192m   81.8914m
  gam eff  557.0846m  507.4460m  507.4460m  507.4460m  557.0845m  507.4460m
  gm         3.0173m    4.8332m    4.8332m  943.4147u  895.0331u    4.6918m
  gds       14.8520u   63.9675u   63.9675u   11.2720u   10.9705u   57.4255u
  gmb      855.7927u  949.1411u  949.1410u  187.6256u  278.9697u  933.8307u
  cdtot    268.5801f  324.5810f  324.5810f   68.4387f   35.1298f  344.8382f
  cgtot      1.0703p  989.5689f  989.5688f  320.0441f  202.5534f    1.5996p
  cstot      1.2816p    1.1127p    1.1127p  349.0140f  237.0985f    1.7437p
  cbtot    713.5418f  750.4139f  750.4140f  182.3267f  110.4112f  913.9697f
  cgs      897.6534f  777.0011f  777.0010f  270.0960f  177.4067f    1.3497p
  cgd       87.9757f   89.2005f   89.2005f   18.6138f   11.8229f   93.2093f



 subckt   xop        xop        xop        xop        xop        xop       
 element  1:mb3      1:mb4      1:mcm1     1:mcm2     1:mcm3     1:mcm4    
 model    0:p_18.1   0:n_18.1   0:p_18.1   0:p_18.1   0:n_18.1   0:p_18.1  
 region     Saturati   Saturati     Linear   Saturati     Linear     Linear
  id      -280.3158u  280.3157u  -89.6603u   -7.1700u    7.1700u -214.4696u
  ibs      5.073e-20 -7.585e-20  1.622e-20  1.297e-21 -2.114e-21  2.924e-20
  ibd        3.8968f  -16.4507f  178.0768a    2.2595f  -24.8506a  258.8967a
  vgs     -882.5987m  421.3083m   -1.3571  -506.6105m  517.4013m   -1.3571 
  vds     -882.5987m  517.4013m -504.2020m -852.9104m   42.8876m -245.0755m
  vbs        0.         0.         0.         0.         0.         0.     
  vth     -469.4093m  362.6496m -475.5408m -475.5283m  366.7586m -469.7194m
  vdsat   -383.8326m   92.3439m -781.2643m  -87.9255m  153.0848m -770.1256m
  vod     -413.1894m   58.6587m -881.5716m  -31.0822m  150.6428m -887.3930m
  beta       3.4653m   81.8870m  314.7508u    2.8554m    1.3738m    1.2477m
  gam eff  557.0846m  507.4460m  557.0843m  557.0847m  507.4460m  557.0845m
  gm         1.2044m    4.7885m  129.0980u  126.8318u   53.0451u  234.0516u
  gds       12.0572u   54.5438u   95.2348u  425.2118n  138.6512u  709.4425u
  gmb      366.2741u  950.1245u   47.8533u   35.7324u   10.7084u   99.5660u
  cdtot     59.6111f  335.1574f   12.3804f   35.6708f   27.8780f  101.7237f
  cgtot    337.7980f    1.6025p   23.7381f  135.2393f   33.7291f  104.1598f
  cstot    395.1416f    1.7489p   26.4814f  151.1274f   34.0166f  111.9105f
  cbtot    186.3818f  905.1526f   13.5613f  100.0356f   16.6289f   54.5322f
  cgs      294.6335f    1.3530p   18.2132f  102.8774f   22.3488f   62.6637f
  cgd       19.6928f   92.8195f    4.6798f   11.7064f   10.2369f   40.2326f



 subckt   xop        xop        xop        xop        xop       
 element  1:mcm5     1:mcm6     1:mcm7     1:mcm8     1:mcm9    
 model    0:p_18.1   0:n_18.1   0:p_18.1   0:p_18.1   0:n_18.1  
 region     Saturati   Saturati   Saturati   Saturati   Saturati
  id      -184.1413u   35.5912u  -29.4060u  -29.4060u  177.9561u
  ibs      3.332e-20 -1.049e-20  5.321e-21  5.321e-21 -5.247e-20
  ibd        1.8028f -865.2850a  919.0364a    1.4331f   -4.3264f
  vgs     -765.7371m  517.4013m -653.3936m -537.7373m  517.4013m
  vds     -408.3182m  746.6064m -473.0752m -180.3184m  746.6064m
  vbs        0.         0.         0.         0.         0.     
  vth     -475.5302m  361.3749m -469.4069m -469.4063m  361.3749m
  vdsat   -284.3586m  156.8977m -194.2758m -108.3918m  156.8977m
  vod     -290.2068m  156.0264m -183.9868m  -68.3310m  156.0264m
  beta       4.4681m    2.7473m    1.6148m    6.7989m   13.7365m
  gam eff  557.0846m  507.4462m  557.0846m  557.0847m  507.4462m
  gm         1.1021m  376.5196u  266.6788u  446.1887u    1.8826m
  gds       25.8155u    4.3679u    2.0118u    9.0223u   21.8395u
  gmb      324.5519u   72.2241u   77.1068u  126.6577u  361.1205u
  cdtot     67.9495f   10.9081f   28.4091f  131.0408f   54.5404f
  cgtot    274.3382f   57.3192f  148.5938f  568.9100f  286.5962f
  cstot    323.2203f   63.6637f  173.1394f  640.7854f  318.3185f
  cbtot    172.0307f   29.9772f   85.0341f  357.3897f  149.8861f
  cgs      234.3231f   49.9322f  128.4066f  470.8719f  249.6610f
  cgd       20.9534f    3.0766f    8.7570f   38.5498f   15.3828f



 ******
 psr+

 ****** ac analysis tnom=  25.000 temp=  25.000 ******
 psp_in_db=-112.3108 

          ***** job concluded
 ******  
 psr+

 ****** job statistics summary tnom=  25.000 temp=  25.000 ******

  ******  Circuit Statistics  ******
  # nodes       =     109 # elements   =      58
  # resistors   =       5 # capacitors =       6 # inductors   =       0
  # mutual_inds =       0 # vccs       =       0 # vcvs        =       0
  # cccs        =       0 # ccvs       =       0 # volt_srcs   =       5
  # curr_srcs   =       1 # diodes     =       0 # bjts        =       0
  # jfets       =       0 # mosfets    =      41 # U elements  =       0
  # T elements  =       0 # W elements =       0 # B elements  =       0
  # S elements  =       0 # P elements =       0 # va device   =       0
  # vector_srcs =       0 # N elements =       0


  ******  Runtime Statistics (seconds)  ******

  analysis           time    # points   tot. iter  conv.iter
  op point           0.06           1         250
  ac analysis        0.00          81          81
  readin             0.01
  errchk             0.01
  setup              0.00
  output             0.00


           peak memory used        203.36 megabytes
           total cpu time            0.10 seconds
           total elapsed time        0.06 seconds
           job started at     00:02:23 06/26/2018
           job ended   at     00:02:24 06/26/2018


  **warning** (13_psrp.sp:29) measure result psp_in_db redefined, ignored the previous.
  **info**  the obsolete option acout is ignored
  **info**  the obsolete option acout is ignored
  **warning** (13_psrp.sp:6) runlvl smaller than 5, reset to 5 when accurate turned on

 **warning**  runlvl smaller than 5, reset to 5 when accurate turned on
 ******  
 psr+

 ****** circuit name directory
 circuit number to circuit name directory
   number circuitname                     definition         multiplier
        0 main circuit
        1 xop.                            aicop              1.00 
 ***************************************************************************
 ***        model parameters  model name:   0:n_18.1   model type:nmos   ***
 ***************************************************************************

   *** general parameters ***
    deriv=   0.           

   ***  level 49  model parameters  ***

      hspver=    2006.03               level=         49         
     version=        3.2            paramchk=          0         
      apwarn=          1                lite=          0         
      vgslim=          0             binUnit=          1         
      capMod=          2               xpart=          1         
      mobMod=          1              nqsMod=          0         
      stiMod=          0                 elm=          5         
    sfvtflag=          0                 tox=   4.37e-09 meter   
          xj=    1.6e-07 meter       binflag=          0         
        lmin=    1.8e-07 meter          lmax=      5e-05 meter   
        wmin=    2.5e-07 meter          wmax=     0.0001 meter   
        lref=          0 meter          wref=          0 meter   
        lint=  1.587e-08 meter          wint=  1.022e-08 meter   
       lmult=          1               wmult=          1         
          ll= -1.062e-15                 lln=          1         
          lw=  2.996e-15                 lwn=          1         
         lwl=          0                  wl=          0         
         wln=          1                  ww=  7.262e-16         
         wwn=          1                 wwl=          0         
         dwg= -3.396e-09 m/V             dwb=  1.346e-09 m/V^1/2 
          xl=  2.095e-07                  xw=     -2e-08         
          a0=       1.93                 ags=     0.5072 V^-1    
          b0=  1.486e-06 meter            b1=  9.064e-06 meter   
        keta=    0.01752 V^-1           voff=    -0.1088 V       
       ngate=      1e+23 cm^-3           vbx=          0 V       
         vbm=         -3 V                xt=   1.55e-07 meter   
        vth0=      0.322 V               nch= 3.7446e+17 cm^-3   
        nsub=      6e+16 cm^-3           nlx=  4.279e-07 meter   
      gamma1=          0 V^-1/2       gamma2=          0 V^-1/2  
          k1=     0.4578 V^1/2            k2=   -0.02638         
          k3=     -10.88                 k3b=     0.2379 V^-1    
          w0= -8.813e-08 meter          dvt0=     0.4042         
        dvt1=     0.3237                dvt2=    -0.8602 V^-1    
       dvt0w=      0.383 meter^-1      dvt1w=     600000 meter^-1
       dvt2w=     -0.025 V^-1           dsub=   0.001592         
        eta0=   0.001004                etab=  -0.001459 V^-1    
          u0=      314.1 cm^2/V/sec         ua= -9.201e-10 m/V     
          ub=  1.907e-18 (m/V)^2          uc=  4.355e-11 V^-1    
        vsat=      72580 m/sec            a1=          0 v^-1    
          a2=          1               delta=       0.01 V       
        rdsw=      4.905 ohm-um         prwg=          0 V^-1    
        prwb=          0 V^-1/2           wr=          1         
        pclm=      1.091             pdiblc1=   0.003061         
     pdiblc2=      1e-06             pdiblcb=          0 V^-1    
      pscbe1=  4.866e+08 V/m          pscbe2=    2.8e-07 V/m     
       drout=   0.001592                pvag=    -0.2958         
     nfactor=      1.038                cdsc=   0.002275 f/m^2   
       cdscb=  0.0008241 f/V/m^2       cdscd=    -0.0005 f/V/m^2 
         cit=  -0.001511 f/m^2        alpha0=          0 m/V     
       beta0=         30 V               dlc=      4e-08 meter   
         dwc=          0 meter           clc=      1e-07 meter   
         cle=        0.6                cgso=  2.015e-10 f/m     
        cgdo=    2.1e-10 f/m            cgbo=          0 f/m     
        cgsl=          0 f/m            cgdl=          0 f/m     
      ckappa=        0.6                  cf=  1.533e-10 f/m     
        acde=          1 m/V            moin=         15 V^1/2   
        toxm=    4.2e-09 m            dtoxcv=          0 m       
         vfb (not used)                alpha1=          0 1/V     
        ijth=          0 A              noff=          1         
      voffcv=          0                 tcj=          0 1/K     
       tcjsw=          0 1/K          tcjswg=          0 1/K     
         tpb=          0 V/K           tpbsw=          0 V/K     
      tpbswg=          0 V/K             llc=  -6.64e-15         
         lwc=          0                lwlc=          0         
         wlc=          0                 wwc=          0         
        wwlc=          0                tnom=     298.15 K       
         kt1=    -0.2255 V              kt1l= -4.275e-09         
         kt2=   -0.02527                 ute=     -1.186         
         ua1=  2.253e-09 m/V             ub1= -2.673e-18 (m/V)^2 
         uc1= -3.832e-11 m/V^2            at=      14490 m/s     
         prt=     -10.18         
         using Berkeley noise model       noiMod=          1         
        noia=      1e+20                noib=      50000         
        noic=   -1.4e-12                  em=    4.2e+07         
          ef=          1                  af=          1         
          kf=          0              gdsnoi=-1.23457e-29         
         using Hspice diodes            using ACM 
         acm=         3                 hdif=   2.6e-07 meter    
        ldif=     8e-08 meter             js=     1e-06 amp/m^2  
         jsw=     7e-11 amp/m            xti=         3          
           n=         1                   cj=  0.001133 f/m^2    
          mj=     0.443                   pb=     0.823 V        
        cjsw=  1.49e-10 f/m             mjsw=      0.33          
         php=      0.88 V               pbsw (not used)           
      cjgate= 5.555e-10 f/m            cjswg (not used)           
       mjswg (not used)                 pbswg (not used)           
         la0=    -0.4667                lags=     0.3028         
       lketa=   -0.01942               lvoff=  -0.004208         
       lvth0=     0.0024                lnlx= -2.854e-08         
       leta0=   0.001574            lpdiblc2=  -0.004752         
         wa0=   -0.04731                wags=   0.004242         
       wvoff= -0.0004078               wvth0=    0.07227         
         wu0=      -3.96                 wua=  -1.88e-11         
       wvsat=       5066                wute=    0.06373         
         wat=       7067                 pa0=   -0.02649         
       pvoff= -0.0003788               pvth0=     -0.001         
         pw0=    1.3e-09                 pub=    3.8e-20         
       pvsat=        140         
 ***************************************************************************
 ***        model parameters  model name:   0:p_18.1   model type:pmos   ***
 ***************************************************************************

   *** general parameters ***
    deriv=   0.           

   ***  level 49  model parameters  ***

      hspver=    2006.03               level=         49         
     version=        3.2            paramchk=          0         
      apwarn=          1                lite=          0         
      vgslim=          0             binUnit=          1         
      capMod=          2               xpart=          1         
      mobMod=          3              nqsMod=          0         
      stiMod=          0                 elm=          5         
    sfvtflag=          0                 tox=    4.3e-09 meter   
          xj=      1e-07 meter       binflag=          0         
        lmin=    1.8e-07 meter          lmax=      5e-05 meter   
        wmin=    2.5e-07 meter          wmax=     0.0001 meter   
        lref=          0 meter          wref=          0 meter   
        lint= -1.041e-08 meter          wint= -1.525e-07 meter   
       lmult=          1               wmult=          1         
          ll=  6.635e-15                 lln=          1         
          lw= -2.873e-16                 lwn=          1         
         lwl=          0                  wl=          0         
         wln=          1                  ww=  1.236e-14         
         wwn=          1                 wwl=          0         
         dwg= -1.251e-07 m/V             dwb= -1.039e-07 m/V^1/2 
          xl=    9.8e-08                  xw=     -2e-08         
          a0=       1.35                 ags=     0.3818 V^-1    
          b0= -3.088e-07 meter            b1=          0 meter   
        keta=    0.01044 V^-1           voff=    -0.1073 V       
       ngate=      1e+23 cm^-3           vbx=          0 V       
         vbm=         -3 V                xt=   1.55e-07 meter   
        vth0=      -0.47 V               nch=  6.231e+17 cm^-3   
        nsub=      6e+16 cm^-3           nlx=   2.53e-07 meter   
      gamma1=          0 V^-1/2       gamma2=          0 V^-1/2  
          k1=     0.5704 V^1/2            k2=   0.006973         
          k3=     -2.833                 k3b=      1.326 V^-1    
          w0= -1.943e-07 meter          dvt0=     0.4885         
        dvt1=    0.07578                dvt2=     0.1187 V^-1    
       dvt0w=    -0.1261 meter^-1      dvt1w=      24790 meter^-1
       dvt2w=     0.6915 V^-1           dsub=     1.9191         
        eta0=      1.071                etab=    -0.9291 V^-1    
          u0=     120.94 cm^2/V/sec         ua=   1.54e-09 m/V     
          ub=  2.646e-19 (m/V)^2          uc=   -0.09587 V^-1    
        vsat=      53400 m/sec            a1=          0 v^-1    
          a2=          1               delta=       0.01 V       
        rdsw=      792.1 ohm-um         prwg=          0 V^-1    
        prwb=          0 V^-1/2           wr=          1         
        pclm=      2.653             pdiblc1=          0         
     pdiblc2=      5e-06             pdiblcb=          0 V^-1    
      pscbe1=  4.866e+08 V/m          pscbe2=    2.8e-07 V/m     
       drout=      1.457                pvag=      1.262         
     nfactor=      1.535                cdsc=  0.0007578 f/m^2   
       cdscb=     0.0001 f/V/m^2       cdscd= -2.883e-05 f/V/m^2 
         cit=  -0.001067 f/m^2        alpha0=          0 m/V     
       beta0=         30 V               dlc=   7.01e-08 meter   
         dwc=          0 meter           clc=      1e-07 meter   
         cle=        0.6                cgso=  1.854e-10 f/m     
        cgdo=  1.854e-10 f/m            cgbo=          0 f/m     
        cgsl=          0 f/m            cgdl=          0 f/m     
      ckappa=        0.6                  cf=  1.533e-10 f/m     
        acde=          1 m/V            moin=         15 V^1/2   
        toxm=    4.2e-09 m            dtoxcv=          0 m       
         vfb (not used)                alpha1=          0 1/V     
        ijth=          0 A              noff=          1         
      voffcv=          0                 tcj=          0 1/K     
       tcjsw=          0 1/K          tcjswg=          0 1/K     
         tpb=          0 V/K           tpbsw=          0 V/K     
      tpbswg=          0 V/K             llc=  -1.31e-14         
         lwc=          0                lwlc=          0         
         wlc=          0                 wwc=          0         
        wwlc=          0                tnom=     298.15 K       
         kt1=    -0.2294 V              kt1l= -8.204e-09         
         kt2=  -0.009487                 ute=    -0.4484         
         ua1=  4.571e-09 m/V             ub1= -6.026e-18 (m/V)^2 
         uc1=    -0.0985 m/V^2            at=      12030 m/s     
         prt=          0         
         using Berkeley noise model       noiMod=          1         
        noia=      1e+20                noib=      50000         
        noic=   -1.4e-12                  em=    4.2e+07         
          ef=          1                  af=          1         
          kf=          0              gdsnoi=-1.23457e-29         
         using Hspice diodes            using ACM 
         acm=         3                 hdif=   2.6e-07 meter    
        ldif=     8e-08 meter             js=     3e-06 amp/m^2  
         jsw=  4.22e-11 amp/m            xti=         3          
           n=         1                   cj=  0.001364 f/m^2    
          mj=     0.395                   pb=     0.762 V        
        cjsw=  1.98e-10 f/m             mjsw=     0.324          
         php=     0.665 V               pbsw (not used)           
      cjgate=  1.98e-10 f/m            cjswg (not used)           
       mjswg (not used)                 pbswg (not used)           
         la0=     -0.281                lags=    0.04454         
       lketa=     -0.012               lvoff= -0.0009871         
       lvth0=     0.0044                lnlx= -1.584e-08         
         lua= -8.253e-11            lpdiblc2=   0.003012         
         wa0=   -0.04807                wags=   -0.04277         
       wvoff=  -0.009816               wvth0=    -0.0303         
         wua=   2.63e-09               wvsat=     -14200         
       wrdsw=      10.07                wute=    -0.2682         
         wat=      -6405                wprt=      226.6         
         pa0=    0.08661                pags=   -0.04076         
       pvoff= -9.833e-05               pvth0=     0.0035         
         pua=  5.855e-11               pvsat=     -377.1         
  
      
 **info** set option symb=1 internally to help for convergence.
 *****************************************************************
 ******  option summary
 ******
 runlvl  = 5         bypass  = 2.0000    
  Opening plot unit= 15
 file=13_psrp.pa2

 **info** dc convergence successful at Newton-Raphson method 
 ******  
 psr+

 ****** operating point information tnom=  25.000 temp=  25.000 ******
 ****** operating point status is all       simulation time is     0.     
    node    =voltage      node    =voltage      node    =voltage

 +0:iref    = 516.6288m 0:vdd     =   1.4000  0:vinn    = 700.0000m
 +0:vinp    = 700.0000m 0:vocm    = 700.0000m 0:von     =   1.3875 
 +0:vop     =   1.3875  0:vss     =   0.      1:net1    =  15.5339m
 +1:net10   =  60.2819m 1:net11   =  60.2819m 1:net2    =  18.9529m
 +1:net21   =   1.3857  1:net25   =   1.3860  1:net26   = 809.3777m
 +1:net3    =  18.9529m 1:net30   = 742.7636m 1:net4    =  45.9772m
 +1:net5    =  45.9772m 1:net6    =   1.0078  1:net7    =   1.0078 
 +1:net8    =   1.4000  1:net9    =   1.4000  1:vb2     = 233.6579m
 +1:vb3     = 377.2165m 1:vcmc    = 777.3775m


 **** voltage sources

 subckt                                                         
 element  0:vdd      0:vgnd     0:vinn     0:vinp     0:vocm    
  volts      1.4000     0.       700.0000m  700.0000m  700.0000m
  current   -1.2233m  942.9680u    0.         0.         2.8509u
  power      1.7126m    0.         0.         0.        -1.9956u

     total voltage source power dissipation=    1.7106m       watts



 **** current sources

 subckt             
 element  0:iref    
  volts    883.3712m
  current   55.0000u
  power    -48.5854u


     total current source power dissipation= -48.5854u       watts

 **** resistors

 subckt                         xop        xop        xop       
 element  0:rload1   0:rload2   1:ro_cm    1:rn_cm    1:rp_cm   
  r value   10.0000k   10.0000k   15.0000k   10.0000k   10.0000k
  v drop     1.3875     1.3875    42.7636m    1.5156m    1.5156m
  current  138.7490u  138.7490u    2.8509u  151.5576n  151.5576n
  power    192.5129u  192.5129u  121.9149n  229.6970p  229.6970p



 **** mosfets


 subckt   xop        xop        xop        xop        xop        xop       
 element  1:m0       1:m11a     1:m11b     1:m12a     1:m12b     1:m13a    
 model    0:n_18.1   0:n_18.1   0:n_18.1   0:p_18.1   0:p_18.1   0:p_18.1  
 region       Linear     Linear     Linear   Saturati   Saturati     Cutoff
  id        50.5346u   25.2673u   25.2673u  -25.2670u  -25.2670u   16.5560f
  ibs     -1.522e-20 -220.4491a -220.4491a  4.653e-21  4.653e-21 -2.724e-26
  ibd     -440.8678a -268.9518a -268.9518a   10.7854f   10.7854f  -22.6318f
  vgs      516.6288m  684.4661m  684.4661m -622.6225m -622.6225m  214.7051m
  vds       15.5339m    3.4189m    3.4189m   -1.3810    -1.3810    27.0243m
  vbs        0.       -15.5339m  -15.5339m    0.         0.         0.     
  vth      438.9363m  484.5506m  484.5506m -548.3183m -548.3183m -533.0168m
  vdsat    100.8801m  191.0799m  191.0799m -110.9862m -110.9862m  -40.8975m
  vod       77.6925m  199.9155m  199.9155m  -74.3042m  -74.3042m  720.6976m
  beta      45.1134m   39.1759m   39.1759m    5.0357m    5.0357m    6.3564m
  gam eff  507.4459m  507.8795m  507.8795m  557.0847m  557.0847m  557.2791m
  gm       543.2490u  128.9564u  128.9564u  374.2659u  374.2659u  480.5188f
  gds        2.9643m    7.3208m    7.3208m  820.0470n  820.0470n  343.0655f
  gmb      120.0915u   27.8521u   27.8521u  113.0049u  113.0049u  195.1329f
  cdtot      1.5540p  705.5297f  705.5297f  108.6160f  108.6160f  229.4010f
  cgtot      1.7987p  574.2299f  574.2299f  569.0983f  569.0983f  575.1561f
  cstot      1.8311p  661.5304f  661.5304f  685.0577f  685.0577f  226.9429f
  cbtot      1.0016p  406.9781f  406.9781f  381.3983f  381.3983f  818.2387f
  cgs        1.1787p  314.8590f  314.8590f  476.4947f  476.4947f   46.4696f
  cgd      543.4980f  243.3740f  243.3740f   29.8835f   29.8835f   73.8524f



 subckt   xop        xop        xop        xop        xop        xop       
 element  1:m13b     1:m14a     1:m14b     1:mc1a     1:mc1b     1:mc2a    
 model    0:p_18.1   0:n_18.1   0:n_18.1   0:n_18.1   0:n_18.1   0:p_18.1  
 region       Cutoff     Linear     Linear     Linear     Linear   Saturati
  id        16.5560f    6.4710u    6.4710u    9.0086u    9.0086u  -15.4796u
  ibs     -2.724e-26 -1.949e-21 -1.949e-21 -3.070e-21 -3.070e-21  2.851e-21
  ibd      -22.6318f  -65.2441a  -65.2441a -111.6436a -111.6436a  417.2830a
  vgs      214.7051m  516.6288m  516.6288m  516.6288m  516.6288m   -1.0078 
  vds       27.0243m   45.9772m   45.9772m   45.9772m   45.9772m -961.7896m
  vbs        0.         0.         0.         0.         0.         0.     
  vth     -533.0168m  459.3560m  459.3560m  456.6917m  456.6917m -531.4807m
  vdsat    -40.8975m   91.3769m   91.3769m   92.2347m   92.2347m -427.2267m
  vod      720.6976m   57.2728m   57.2728m   59.9371m   59.9371m -476.2861m
  beta       6.3564m    3.0275m    3.0275m    4.0795m    4.0795m  150.5556u
  gam eff  557.2791m  507.4460m  507.4460m  507.4459m  507.4459m  557.0846m
  gm       480.5188f   88.5797u   88.5797u  121.5848u  121.5848u   59.3293u
  gds      343.0655f   93.0844u   93.0844u  130.2146u  130.2146u  341.7213n
  gmb      195.1329f   19.3521u   19.3521u   26.5902u   26.5902u   19.5306u
  cdtot    229.4010f   31.9065f   31.9065f   52.8116f   52.8116f    6.4822f
  cgtot    575.1561f   60.4235f   60.4235f  101.7298f  101.7298f   57.7887f
  cstot    226.9429f   65.4581f   65.4581f  108.9496f  108.9496f   68.5528f
  cbtot    818.2387f   43.2876f   43.2876f   69.3926f   69.3926f   29.4471f
  cgs       46.4696f   46.7826f   46.7826f   78.9229f   78.9229f   51.8473f
  cgd       73.8524f    9.0050f    9.0050f   15.2151f   15.2151f    1.6964f



 subckt   xop        xop        xop        xop        xop        xop       
 element  1:mc2b     1:mc3a     1:mc3b     1:m21a     1:m21b     1:m22a    
 model    0:p_18.1   0:p_18.1   0:p_18.1   0:n_18.1   0:n_18.1   0:p_18.1  
 region     Saturati     Linear     Linear     Cutoff     Cutoff     Linear
  id       -15.4796u  -15.4796u  -15.4796u   31.1464p   31.1464p  -87.1527p
  ibs      2.851e-21  2.851e-21  2.851e-21 -1.627e-26 -1.627e-26  1.605e-26
  ibd      417.2830a  170.1730a  170.1730a   -4.3684f   -4.3684f  6.305e-22
  vgs       -1.0078    -1.0228    -1.0228    45.9772m   45.9772m   -1.0228 
  vds     -961.7896m -392.2332m -392.2332m    1.4000     1.4000  -726.6620n
  vbs        0.         0.         0.         0.         0.         0.     
  vth     -531.4807m -531.4807m -531.4807m  437.2684m  437.2684m -525.8901m
  vdsat   -427.2267m -439.8287m -439.8287m   38.2613m   38.2613m -443.1124m
  vod     -476.2861m -491.3028m -491.3028m -391.2912m -391.2912m -496.8933m
  beta     150.5556u  150.1092u  150.1092u    6.5531m    6.5531m  248.8069u
  gam eff  557.0846m  557.0846m  557.0846m  507.4459m  507.4459m  557.0847m
  gm        59.3293u   51.2726u   51.2726u    1.1453n    1.1453n  160.6790p
  gds      341.7213n    9.7559u    9.7559u   11.0215p   11.0215p  119.9417u
  gmb       19.5306u   17.3821u   17.3821u  284.7463p  284.7463p   66.2178p
  cdtot      6.4822f   14.0663f   14.0663f   31.9344f   31.9344f  195.0232f
  cgtot     57.7887f   60.0953f   60.0953f   61.1486f   61.1486f  177.9633f
  cstot     68.5528f   68.6530f   68.6530f   42.0029f   42.0029f  187.0158f
  cbtot     29.4471f   30.5106f   30.5106f  101.1902f  101.1902f   78.3276f
  cgs       51.8473f   51.7062f   51.7062f    8.3747f    8.3747f   93.2341f
  cgd        1.6964f    4.7377f    4.7377f    8.5739f    8.5739f   83.8781f



 subckt   xop        xop        xop        xop        xop        xop       
 element  1:m22b     1:m31a     1:m31b     1:m32a     1:m32b     1:m33a    
 model    0:p_18.1   0:n_18.1   0:n_18.1   0:p_18.1   0:p_18.1   0:p_18.1  
 region       Linear     Linear     Linear   Saturati   Saturati     Linear
  id       -87.1528p  136.6736u  136.6736u -136.6736u -136.6736u -138.9015u
  ibs      1.605e-26 -4.117e-20 -4.117e-20  2.517e-20  2.517e-20  2.705e-20
  ibd      6.305e-22  -85.5046a  -85.5046a    1.1625f    1.1625f  257.6681a
  vgs       -1.0228     1.4000     1.4000    -1.3397    -1.3397    -1.3397 
  vds     -726.6628n   60.2819m   60.2819m   -1.3397    -1.3397   -12.5100m
  vbs        0.         0.         0.         0.         0.         0.     
  vth     -525.8901m  451.2182m  451.2182m -548.3267m -548.3267m -559.3667m
  vdsat   -443.1124m  722.9278m  722.9278m -700.5109m -700.5109m -696.8379m
  vod     -496.8933m  948.7811m  948.7811m -791.3914m -791.3914m -780.3514m
  beta     248.8069u    2.5500m    2.5500m  486.2465u  486.2465u   15.0443m
  gam eff  557.0847m  507.4467m  507.4467m  557.0844m  557.0844m  557.0846m
  gm       160.6792p  129.4798u  129.4798u  311.6539u  311.6539u  155.1685u
  gds      119.9417u    2.1584m    2.1584m    4.0479u    4.0479u   11.0024m
  gmb       66.2178p   36.2445u   36.2445u  106.3863u  106.3863u   69.5495u
  cdtot    195.0232f  101.7476f  101.7476f   12.2031f   12.2031f    1.7339p
  cgtot    177.9633f   80.0914f   80.0914f   67.4562f   67.4562f    1.3720p
  cstot    187.0158f   91.2038f   91.2038f   82.9434f   82.9434f    1.6145p
  cbtot     78.3276f   45.7381f   45.7381f   41.1571f   41.1571f  958.0233f
  cgs       93.2341f   41.3927f   41.3927f   59.9076f   59.9076f  702.5426f
  cgd       83.8781f   36.8015f   36.8015f    3.3510f    3.3510f  655.0655f



 subckt   xop        xop        xop        xop        xop        xop       
 element  1:m33b     1:m34a     1:m34b     1:mb0      1:mb1      1:mb2     
 model    0:p_18.1   0:n_18.1   0:n_18.1   0:n_18.1   0:p_18.1   0:n_18.1  
 region       Linear     Cutoff     Cutoff   Saturati   Saturati   Saturati
  id      -138.9015u  203.0598p  203.0598p   55.0000u -261.0017u  261.0017u
  ibs      2.705e-20 -1.753e-25 -1.753e-25 -1.513e-20  4.807e-20 -7.178e-20
  ibd      257.6681a  -46.7784f  -46.7784f   -3.2240f    3.0362f   -7.2907f
  vgs       -1.3397    45.9772m   45.9772m  516.6288m   -1.1663   516.6288m
  vds      -12.5100m    1.3875     1.3875   516.6288m   -1.1663   233.6579m
  vbs        0.         0.         0.         0.         0.         0.     
  vth     -559.3667m  450.9966m  450.9966m  431.6936m -548.3236m  433.5719m
  vdsat   -696.8379m   38.8477m   38.8477m  105.1478m -552.3369m  103.9834m
  vod     -780.3514m -405.0194m -405.0194m   84.9352m -618.0185m   83.0568m
  beta      15.0443m   67.5630m   67.5630m   10.9155m    1.5033m   54.5799m
  gam eff  557.0846m  507.4459m  507.4459m  507.4460m  557.0845m  507.4460m
  gm       155.1685u    7.4675n    7.4675n  828.0458u  762.5710u    3.9615m
  gds       11.0024m   75.0385p   75.0385p    8.8178u    8.2717u   66.0131u
  gmb       69.5495u    1.8575n    1.8575n  175.7717u  252.9528u  846.4035u
  cdtot      1.7339p  305.3535f  305.3535f   73.6634f   37.4588f  406.1170f
  cgtot      1.3720p  529.7096f  529.7096f  367.0679f  202.4824f    1.8397p
  cstot      1.6145p  401.4016f  401.4016f  417.8589f  248.8221f    2.0818p
  cbtot    958.0233f  920.4886f  920.4886f  217.1214f  125.3773f    1.1123p
  cgs      702.5426f   78.0678f   78.0678f  318.5530f  178.7923f    1.5948p
  cgd      655.0655f   79.9260f   79.9260f   15.6186f   10.0511f   82.9929f



 subckt   xop        xop        xop        xop        xop        xop       
 element  1:mb3      1:mb4      1:mcm1     1:mcm2     1:mcm3     1:mcm4    
 model    0:p_18.1   0:n_18.1   0:p_18.1   0:p_18.1   0:n_18.1   0:p_18.1  
 region     Saturati   Saturati     Cutoff     Linear     Cutoff     Cutoff
  id      -268.6770u  268.6770u -102.8985f -303.1154n  303.1043n   -1.3382p
  ibs      4.948e-20 -7.389e-20    0.       5.583e-23 -9.130e-23  9.043e-28
  ibd        4.4374f  -11.7701f    4.8681a  7.469e-19 -786.5694a  686.3273a
  vgs       -1.0228   516.6288m  -14.3125m   -1.1523   377.2165m  -14.3125m
  vds       -1.0228   377.2165m  -14.0255m -286.9419u    1.3857  -657.2364m
  vbs        0.         0.         0.         0.         0.         0.     
  vth     -548.3215m  432.6190m -554.0363m -554.0363m  429.8359m -540.1661m
  vdsat   -431.4624m  104.5733m  -42.2294m -538.2907m   46.9889m  -41.2465m
  vod     -474.4620m   84.0098m  539.7238m -598.2802m  -52.6194m  525.8536m
  beta       2.5737m   54.5788m  278.5616u    1.8413m  899.1553u    1.1631m
  gam eff  557.0846m  507.4460m  557.0847m  557.0847m  507.4459m  557.0847m
  gm         1.0216m    4.0665m    2.9535p  450.4900n    7.4561u   38.4283p
  gds        9.0913u   47.2970u    5.8067p    1.0562m   71.6386n   76.1766f
  gmb      330.7327u  865.9343u    1.1132p  188.5129n    1.6075u   14.4663p
  cdtot     63.7305f  381.7801f    6.4481f  255.7054f    5.3905f   20.4918f
  cgtot    337.6622f    1.8352p   10.1086f  206.2992f   13.0149f   40.6415f
  cstot    414.6877f    2.0867p    6.4841f  237.8997f   10.7338f   24.5200f
  cbtot    211.7671f    1.0974p   17.7297f  134.0883f   17.2898f   64.1923f
  cgs      296.7111f    1.5926p    1.3279f  106.0117f    4.6531f    5.3659f
  cgd       16.7426f   78.8580f    1.3277f   98.2156f    1.4066f    5.3650f



 subckt   xop        xop        xop        xop        xop       
 element  1:mcm5     1:mcm6     1:mcm7     1:mcm8     1:mcm9    
 model    0:p_18.1   0:n_18.1   0:p_18.1   0:p_18.1   0:n_18.1  
 region       Cutoff     Cutoff   Saturati   Saturati     Cutoff
  id         2.8509u  523.8131n   -5.9938u   -5.9938u    2.6191u
  ibs     -2.044e-20 -1.578e-22  1.104e-21  1.104e-21 -7.889e-22
  ibd      -12.3517f -882.5385a    1.1275f  249.9058a   -4.4127f
  vgs     -509.1056m  377.2165m -622.6225m -575.7197m  377.2165m
  vds       34.6139m  777.3775m -590.6223m  -32.0002m  777.3775m
  vbs        0.         0.         0.         0.         0.     
  vth     -544.0390m  433.8762m -548.3183m -548.3182m  433.8762m
  vdsat    -71.7754m   46.2314m -110.9825m  -83.7650m   46.2314m
  vod      319.4585u  -56.6597m  -74.3042m  -27.4016m  -56.6597m
  beta       3.4773m    1.7988m    1.2309m    5.0763m    8.9941m
  gam eff  557.3327m  507.4459m  557.0847m  557.0847m  507.4459m
  gm        46.5394u   13.0574u   89.0326u   84.1696u   65.2871u
  gds       55.6418u  128.1201n  286.0331n  140.9145u  640.6005n
  gmb       13.6190u    2.8508u   26.8601u   25.8875u   14.2541u
  cdtot    214.3240f   11.7768f   30.1855f  296.7478f   58.8841f
  cgtot    204.7501f   25.3792f  139.1828f  540.0372f  126.8959f
  cstot    112.8468f   20.5821f  167.3828f  562.0394f  102.9106f
  cbtot    207.4428f   35.5574f   96.8260f  421.8517f  177.7869f
  cgs       30.1012f    8.5180f  116.5437f  372.0308f   42.5901f
  cgd      132.3126f    2.8177f    7.3275f   95.8056f   14.0885f



 ******
 psr+

 ****** ac analysis tnom=  25.000 temp=  25.000 ******
 psp_in_db=-265.8366 

          ***** job concluded
 ******  
 psr+

 ****** job statistics summary tnom=  25.000 temp=  25.000 ******

  ******  Circuit Statistics  ******
  # nodes       =     109 # elements   =      58
  # resistors   =       5 # capacitors =       6 # inductors   =       0
  # mutual_inds =       0 # vccs       =       0 # vcvs        =       0
  # cccs        =       0 # ccvs       =       0 # volt_srcs   =       5
  # curr_srcs   =       1 # diodes     =       0 # bjts        =       0
  # jfets       =       0 # mosfets    =      41 # U elements  =       0
  # T elements  =       0 # W elements =       0 # B elements  =       0
  # S elements  =       0 # P elements =       0 # va device   =       0
  # vector_srcs =       0 # N elements =       0


  ******  Runtime Statistics (seconds)  ******

  analysis           time    # points   tot. iter  conv.iter
  op point           0.02           1          23
  ac analysis        0.00          81          81
  readin             0.01
  errchk             0.01
  setup              0.01
  output             0.00


           peak memory used        203.50 megabytes
           total cpu time            0.05 seconds
           total elapsed time        0.03 seconds
           job started at     00:02:23 06/26/2018
           job ended   at     00:02:24 06/26/2018


  **warning** (13_psrp.sp:29) measure result psp_in_db redefined, ignored the previous.
  **info**  the obsolete option acout is ignored
  **info**  the obsolete option acout is ignored
  **warning** (13_psrp.sp:6) runlvl smaller than 5, reset to 5 when accurate turned on

 **warning**  runlvl smaller than 5, reset to 5 when accurate turned on
 ******  
 psr+

 ****** circuit name directory
 circuit number to circuit name directory
   number circuitname                     definition         multiplier
        0 main circuit
        1 xop.                            aicop              1.00 
 ***************************************************************************
 ***        model parameters  model name:   0:n_18.1   model type:nmos   ***
 ***************************************************************************

   *** general parameters ***
    deriv=   0.           

   ***  level 49  model parameters  ***

      hspver=    2006.03               level=         49         
     version=        3.2            paramchk=          0         
      apwarn=          1                lite=          0         
      vgslim=          0             binUnit=          1         
      capMod=          2               xpart=          1         
[...]
        prwb=          0 V^-1/2           wr=          1         
        pclm=      2.653             pdiblc1=          0         
     pdiblc2=      5e-06             pdiblcb=          0 V^-1    
      pscbe1=  4.866e+08 V/m          pscbe2=    2.8e-07 V/m     
       drout=      1.457                pvag=      1.262         
     nfactor=      1.535                cdsc=  0.0007578 f/m^2   
       cdscb=     0.0001 f/V/m^2       cdscd= -2.883e-05 f/V/m^2 
         cit=  -0.001067 f/m^2        alpha0=          0 m/V     
       beta0=         30 V               dlc=   7.01e-08 meter   
         dwc=          0 meter           clc=      1e-07 meter   
         cle=        0.6                cgso=  2.054e-10 f/m     
        cgdo=  2.054e-10 f/m            cgbo=          0 f/m     
        cgsl=          0 f/m            cgdl=          0 f/m     
      ckappa=        0.6                  cf=  1.533e-10 f/m     
        acde=          1 m/V            moin=         15 V^1/2   
        toxm=    4.2e-09 m            dtoxcv=          0 m       
         vfb (not used)                alpha1=          0 1/V     
        ijth=          0 A              noff=          1         
      voffcv=          0                 tcj=          0 1/K     
       tcjsw=          0 1/K          tcjswg=          0 1/K     
         tpb=          0 V/K           tpbsw=          0 V/K     
      tpbswg=          0 V/K             llc=  -1.31e-14         
         lwc=          0                lwlc=          0         
         wlc=          0                 wwc=          0         
        wwlc=          0                tnom=     298.15 K       
         kt1=    -0.2294 V              kt1l= -8.204e-09         
         kt2=  -0.009487                 ute=    -0.4484         
         ua1=  4.571e-09 m/V             ub1= -6.026e-18 (m/V)^2 
         uc1=    -0.0985 m/V^2            at=      12030 m/s     
         prt=          0         
         using Berkeley noise model       noiMod=          1         
        noia=      1e+20                noib=      50000         
        noic=   -1.4e-12                  em=    4.2e+07         
          ef=          1                  af=          1         
          kf=          0              gdsnoi=-1.23457e-29         
         using Hspice diodes            using ACM 
         acm=         3                 hdif=   2.6e-07 meter    
        ldif=     8e-08 meter             js=     3e-06 amp/m^2  
         jsw=  4.22e-11 amp/m            xti=         3          
           n=         1                   cj=  0.001116 f/m^2    
          mj=     0.395                   pb=     0.762 V        
        cjsw= 1.566e-10 f/m             mjsw=     0.324          
         php=     0.665 V               pbsw (not used)           
      cjgate= 1.566e-10 f/m            cjswg (not used)           
       mjswg (not used)                 pbswg (not used)           
         la0=     -0.281                lags=    0.04454         
       lketa=     -0.012               lvoff= -0.0009871         
       lvth0=     0.0041                lnlx= -1.584e-08         
         lua= -8.253e-11            lpdiblc2=   0.003012         
         wa0=   -0.04807                wags=   -0.04277         
       wvoff=  -0.009816               wvth0=    -0.0113         
         wua=   2.63e-09               wvsat=     -14200         
       wrdsw=      10.07                wute=    -0.2682         
         wat=      -6405                wprt=      226.6         
         pa0=    0.08661                pags=   -0.04076         
       pvoff= -9.833e-05               pvth0=    0.00329         
         pua=  5.855e-11               pvsat=       -464         
  
      
 **info** set option symb=1 internally to help for convergence.
 *****************************************************************
 ******  option summary
 ******
 runlvl  = 5         bypass  = 2.0000    
  Opening plot unit= 15
 file=13_psrp.pa4

 **info** dc convergence successful at GMINDC ramping method 
 ******  
 psr+

 ****** operating point information tnom=  25.000 temp=  25.000 ******
 ****** operating point status is all       simulation time is     0.     
    node    =voltage      node    =voltage      node    =voltage

 +0:iref    = 482.1937m 0:vdd     =   1.4000  0:vinn    = 700.0000m
 +0:vinp    = 700.0000m 0:vocm    = 700.0000m 0:von     = 833.1198m
 +0:vop     = 833.1194m 0:vss     =   0.      1:net1    = 180.7871m
 +1:net10   = 742.0829m 1:net11   = 742.0830m 1:net2    = 835.9977m
 +1:net21   = 639.9187m 1:net25   = 868.1299m 1:net26   = 913.4817m
 +1:net3    = 835.9977m 1:net30   = 955.1712m 1:net4    = 482.3781m
 +1:net5    = 482.3781m 1:net6    = 915.6009m 1:net7    = 915.6009m
 +1:net8    = 479.7256m 1:net9    = 479.7256m 1:vb2     = 356.0970m
 +1:vb3     = 486.5449m 1:vcmc    = 727.8711m


 **** voltage sources

 subckt                                                         
 element  0:vdd      0:vgnd     0:vinn     0:vinp     0:vocm    
  volts      1.4000     0.       700.0000m  700.0000m  700.0000m
  current   -1.6621m    1.4785m    0.         0.        17.0114u
  power      2.3269m    0.         0.         0.       -11.9080u

     total voltage source power dissipation=    2.3150m       watts



 **** current sources

 subckt             
 element  0:iref    
  volts    917.8063m
  current   55.0000u
  power    -50.4793u


     total current source power dissipation= -50.4793u       watts

 **** resistors

 subckt                         xop        xop        xop       
 element  0:rload1   0:rload2   1:ro_cm    1:rn_cm    1:rp_cm   
  r value   10.0000k   10.0000k   15.0000k   10.0000k   10.0000k
  v drop   833.1198m  833.1194m  255.1712m  -35.0101m  -35.0105m
  current   83.3120u   83.3119u   17.0114u   -3.5010u   -3.5011u
  power     69.4089u   69.4088u    4.3408u  122.5706n  122.5737n



 **** mosfets


 subckt   xop        xop        xop        xop        xop        xop       
 element  1:m0       1:m11a     1:m11b     1:m12a     1:m12b     1:m13a    
 model    0:n_18.1   0:n_18.1   0:n_18.1   0:p_18.1   0:p_18.1   0:p_18.1  
 region     Saturati   Saturati   Saturati   Saturati   Saturati     Cutoff
  id       202.4941u  101.2471u  101.2471u -110.7095u -110.7095u   -9.4623u
  ibs     -6.067e-20   -2.5783f   -2.5783f  2.008e-20  2.008e-20  1.717e-21
  ibd       -5.1565f  -11.9225f  -11.9225f    4.4712f    4.4712f    4.3608f
  vgs      482.1937m  519.2129m  519.2129m -672.1289m -672.1289m -479.9008m
  vds      180.7871m  655.2106m  655.2106m -564.0023m -564.0023m -353.6196m
  vbs        0.      -180.7871m -180.7871m    0.         0.         0.     
  vth      420.9903m  506.8454m  506.8454m -490.8611m -490.8611m -483.0938m
  vdsat     93.4115m   76.6031m   76.6031m -191.0025m -191.0025m  -69.1690m
  vod       61.2034m   12.3674m   12.3674m -181.2678m -181.2678m    3.1930m
  beta      58.9943m   60.8608m   60.8608m    6.2362m    6.2362m    7.7894m
  gam eff  507.4460m  512.2789m  512.2789m  557.0846m  557.0846m  557.0847m
  gm         3.3968m    2.0411m    2.0411m    1.0176m    1.0176m  187.6218u
  gds       82.3206u   30.9251u   30.9251u    6.3073u    6.3073u  570.5355n
  gmb      700.5458u  347.0254u  347.0254u  304.5269u  304.5269u   55.6785u
  cdtot    355.9449f  148.9044f  148.9044f  111.1804f  111.1804f  180.2133f
  cgtot      1.3036p  282.2348f  282.2348f  583.7742f  583.7742f  784.5887f
  cstot      1.4803p  347.8879f  347.8879f  690.1459f  690.1459f  762.7090f
  cbtot    875.7481f  313.7051f  313.7051f  346.1353f  346.1353f  624.6074f
  cgs        1.1038p  201.1456f  201.1456f  504.4097f  504.4097f  517.5484f
  cgd       76.0758f   36.6216f   36.6216f   32.9699f   32.9699f   50.9357f



 subckt   xop        xop        xop        xop        xop        xop       
 element  1:m13b     1:m14a     1:m14b     1:mc1a     1:mc1b     1:mc2a    
 model    0:p_18.1   0:n_18.1   0:n_18.1   0:n_18.1   0:n_18.1   0:p_18.1  
 region       Cutoff   Saturati   Saturati   Saturati   Saturati     Linear
  id        -9.4623u   10.3125u   10.3125u   15.0666u   15.0666u  -15.9167u
  ibs      1.717e-21 -3.090e-21 -3.090e-21 -5.098e-21 -5.098e-21  2.887e-21
  ibd        4.3608f -687.9395a -687.9395a   -1.1778f   -1.1778f  190.8005a
  vgs     -479.9008m  482.1937m  482.1937m  482.1937m  482.1937m -915.6009m
  vds     -353.6196m  482.3781m  482.3781m  482.3781m  482.3781m -433.2227m
  vbs        0.         0.         0.         0.         0.         0.     
  vth     -483.0938m  445.7212m  445.7212m  438.9226m  438.9226m -473.0877m
  vdsat    -69.1690m   83.1714m   83.1714m   85.7207m   85.7207m -400.1250m
  vod        3.1930m   36.4725m   36.4725m   43.2711m   43.2711m -442.5132m
  beta       7.7894m    4.2707m    4.2707m    5.6080m    5.6080m  182.7752u
  gam eff  557.0847m  507.4460m  507.4460m  507.4460m  507.4460m  557.0846m
  gm       187.6218u  191.9650u  191.9650u  273.4927u  273.4927u   62.6406u
  gds      570.5355n    2.5273u    2.5273u    3.4193u    3.4193u    3.7330u
  gmb       55.6785u   38.9980u   38.9980u   55.8441u   55.8441u   20.2998u
  cdtot    180.2133f   15.9174f   15.9174f   24.6502f   24.6502f    9.0032f
  cgtot    784.5887f   43.2576f   43.2576f   75.8744f   75.8744f   58.7541f
  cstot    762.7090f   51.7209f   51.7209f   89.6489f   89.6489f   66.8129f
  cbtot    624.6074f   37.3888f   37.3888f   60.3745f   60.3745f   27.7633f
  cgs      517.5484f   34.4100f   34.4100f   61.8106f   61.8106f   51.7591f
  cgd       50.9357f    3.6067f    3.6067f    5.4366f    5.4366f    3.0171f



 subckt   xop        xop        xop        xop        xop        xop       
 element  1:mc2b     1:mc3a     1:mc3b     1:m21a     1:m21b     1:m22a    
 model    0:p_18.1   0:p_18.1   0:p_18.1   0:n_18.1   0:n_18.1   0:p_18.1  
 region       Linear   Saturati   Saturati   Saturati   Saturati   Saturati
  id       -15.9167u  -15.9167u  -15.9167u   27.1613u   27.1613u  -27.1613u
  ibs      2.887e-21  2.887e-21  2.887e-21 -7.440e-21 -7.440e-21  4.927e-21
  ibd      190.8005a  213.3401a  213.3401a   -1.5036f   -1.5036f  810.6243a
  vgs     -915.6009m -913.4551m -913.4551m  482.3781m  482.3781m -913.4551m
  vds     -433.2227m -484.3991m -484.3991m  479.7256m  479.7256m -920.2744m
  vbs        0.         0.         0.         0.         0.         0.     
  vth     -473.0877m -473.0877m -473.0877m  432.0048m  432.0048m -467.2122m
  vdsat   -400.1250m -398.3339m -398.3339m   89.1256m   89.1256m -401.7805m
  vod     -442.5132m -440.3674m -440.3674m   50.3733m   50.3733m -446.2429m
  beta     182.7752u  182.8634u  182.8634u    8.9616m    8.9616m  300.1464u
  gam eff  557.0846m  557.0846m  557.0846m  507.4460m  507.4460m  557.0846m
  gm        62.6406u   64.2742u   64.2742u  478.2713u  478.2713u  110.4468u
  gds        3.7330u    1.8825u    1.8825u    6.0172u    6.0172u  556.0285n
  gmb       20.2998u   20.7246u   20.7246u   97.6735u   97.6735u   35.7897u
  cdtot      9.0032f    7.7395f    7.7395f   37.7711f   37.7711f   11.7384f
  cgtot     58.7541f   58.3376f   58.3376f  123.3624f  123.3624f  140.9199f
  cstot     66.8129f   66.8064f   66.8064f  144.5727f  144.5727f  162.3816f
  cbtot     27.7633f   27.6392f   27.6392f   92.8554f   92.8554f   62.7494f
  cgs       51.7591f   51.7695f   51.7695f  101.8069f  101.8069f  126.8690f
  cgd        3.0171f    2.4845f    2.4845f    8.5979f    8.5979f    3.7186f



 subckt   xop        xop        xop        xop        xop        xop       
 element  1:m22b     1:m31a     1:m31b     1:m32a     1:m32b     1:m33a    
 model    0:p_18.1   0:n_18.1   0:n_18.1   0:p_18.1   0:p_18.1   0:p_18.1  
 region     Saturati   Saturati   Saturati   Saturati   Saturati   Saturati
  id       -27.1613u   10.8042u   10.8042u  -10.8042u  -10.8042u -323.4981u
  ibs      4.927e-21 -3.237e-21 -3.237e-21  1.960e-21  1.960e-21  6.190e-20
  ibd      810.6243a   -1.0583f   -1.0583f  579.5282a  579.5282a   11.8633f
  vgs     -913.4551m  479.7256m  479.7256m -657.9171m -657.9170m -657.9171m
  vds     -920.2744m  742.0829m  742.0830m -657.9171m -657.9170m -566.8802m
  vbs        0.         0.         0.         0.         0.         0.     
  vth     -467.2122m  432.6712m  432.6712m -490.8610m -490.8610m -501.1438m
  vdsat   -401.7805m   87.4754m   87.4754m -179.7312m -179.7312m -176.3748m
  vod     -446.2429m   47.0545m   47.0545m -167.0561m -167.0560m -156.7732m
  beta     300.1464u    3.7161m    3.7161m  695.3151u  695.3151u   22.4193m
  gam eff  557.0846m  507.4460m  507.4460m  557.0846m  557.0846m  557.0846m
  gm       110.4468u  192.6550u  192.6549u  105.6476u  105.6476u    3.2881m
  gds      556.0285n    2.2376u    2.2376u  539.4041n  539.4039n   25.1089u
  gmb       35.7897u   39.1350u   39.1350u   31.5322u   31.5322u  970.7932u
  cdtot     11.7384f   15.1326f   15.1326f   12.0902f   12.0902f  280.3795f
  cgtot    140.9199f   50.7330f   50.7330f   64.7356f   64.7356f    1.0364p
  cstot    162.3816f   59.6448f   59.6448f   76.5373f   76.5373f    1.2626p
  cbtot     62.7494f   38.3265f   38.3265f   38.2614f   38.2614f  731.1231f
  cgs      126.8690f   41.5864f   41.5864f   55.8713f   55.8713f  873.6827f
  cgd        3.7186f    3.5744f    3.5744f    3.6440f    3.6440f   82.0677f



 subckt   xop        xop        xop        xop        xop        xop       
 element  1:m33b     1:m34a     1:m34b     1:mb0      1:mb1      1:mb2     
 model    0:p_18.1   0:n_18.1   0:n_18.1   0:n_18.1   0:p_18.1   0:n_18.1  
 region     Saturati   Saturati   Saturati   Saturati   Saturati   Saturati
  id      -323.4980u  243.6870u  243.6870u   55.0000u -268.2212u  268.2212u
  ibs      6.190e-20 -7.721e-20 -7.721e-20 -1.507e-20  4.866e-20 -7.347e-20
  ibd       11.8633f  -28.2349f  -28.2349f   -3.0227f    2.7585f  -11.1613f
  vgs     -657.9170m  482.3781m  482.3781m  482.1937m   -1.0439   482.1937m
  vds     -566.8806m  833.1198m  833.1194m  482.1937m   -1.0439   356.0970m
  vbs        0.         0.         0.         0.         0.         0.     
  vth     -501.1438m  444.1195m  444.1195m  415.7431m -490.8657m  416.6916m
  vdsat   -176.3748m   84.2518m   84.2518m   96.3152m -498.6833m   95.7533m
  vod     -156.7732m   38.2587m   38.2587m   66.4506m -553.0374m   65.5021m
  beta      22.4193m   95.7853m   95.7853m   14.2265m    1.9102m   71.1344m
  gam eff  557.0846m  507.4460m  507.4460m  507.4460m  557.0845m  507.4460m
  gm         3.2881m    4.4934m    4.4934m  904.3000u  864.7477u    4.4324m
  gds       25.1089u   53.6847u   53.6847u   10.4311u   10.4075u   56.1354u
  gmb      970.7930u  905.0346u  905.0345u  185.0578u  278.7881u  909.7529u
  cdtot    280.3795f  337.9395f  337.9395f   75.5772f   34.2114f  390.0677f
  cgtot      1.0364p  979.0708f  979.0708f  314.8234f  194.7352f    1.5726p
  cstot      1.2626p    1.1757p    1.1757p  359.9742f  231.0731f    1.7958p
  cbtot    731.1231f  824.9481f  824.9482f  202.1019f  110.3498f    1.0214p
  cgs      873.6827f  780.5814f  780.5814f  268.1363f  170.6462f    1.3388p
  cgd       82.0677f   80.8812f   80.8812f   17.0262f   10.9759f   85.7030f



 subckt   xop        xop        xop        xop        xop        xop       
 element  1:mb3      1:mb4      1:mcm1     1:mcm2     1:mcm3     1:mcm4    
 model    0:p_18.1   0:n_18.1   0:p_18.1   0:p_18.1   0:n_18.1   0:p_18.1  
 region     Saturati   Saturati   Saturati   Saturati   Saturati   Saturati
  id      -275.2267u  275.2266u  -11.8130u   -4.8109u    4.8109u  -48.7097u
  ibs      4.993e-20 -7.539e-20  2.143e-21  8.727e-22 -1.442e-21  6.646e-21
  ibd        4.0231f  -15.2501f  187.3982a  603.0627a -365.0461a  469.1831a
  vgs     -913.4551m  482.1937m -760.0813m -512.0329m  486.5449m -760.0813m
  vds     -913.4551m  486.5449m -531.8701m -228.2112m  639.9187m -444.8288m
  vbs        0.         0.         0.         0.         0.         0.     
  vth     -490.8636m  415.7104m -496.9254m -496.9237m  417.5343m -489.5656m
  vdsat   -389.6675m   96.3347m -260.5070m  -79.6125m   98.0281m -260.8581m
  vod     -422.5915m   66.4833m -263.1559m  -15.1092m   69.0105m -270.5157m
  beta       3.2737m   71.1326m  339.6062u    2.6917m    1.1799m    1.3725m
  gam eff  557.0846m  507.4460m  557.0846m  557.0847m  507.4460m  557.0846m
  gm         1.1615m    4.5244m   78.3718u   89.4823u   78.0132u  313.6399u
  gds       11.4300u   52.0837u  949.2143n  687.2361n  856.7217n    5.2071u
  gmb      365.6063u  925.7845u   23.7337u   26.1177u   15.8921u   95.5116u
  cdtot     58.0803f  377.5137f    5.0075f   40.1118f    6.1706f   19.5137f
  cgtot    324.7520f    1.5742p   21.0209f  120.5206f   26.2923f   84.2076f
  cstot    385.1020f    1.8000p   25.2468f  132.0887f   30.2052f   99.3621f
  cbtot    186.2677f    1.0102p   13.6653f  104.6539f   16.8094f   52.2589f
  cgs      283.3572f    1.3408p   17.9967f   86.2000f   22.4192f   72.4063f
  cgd       18.2823f   85.1204f    1.4796f   11.0078f    1.4121f    6.0144f



 subckt   xop        xop        xop        xop        xop       
 element  1:mcm5     1:mcm6     1:mcm7     1:mcm8     1:mcm9    
 model    0:p_18.1   0:n_18.1   0:p_18.1   0:p_18.1   0:n_18.1  
 region     Saturati   Saturati   Saturati   Saturati   Saturati
  id       -31.6983u    9.7722u  -26.9349u  -26.9348u   48.8609u
  ibs      5.750e-21 -2.928e-21  4.886e-21  4.886e-21 -1.464e-20
  ibd        1.0011f -830.4386a  942.8108a    1.4715f   -4.1522f
  vgs     -599.0742m  486.5449m -672.1289m -557.3847m  486.5449m
  vds     -227.3001m  727.8711m -486.5183m -185.6106m  727.8711m
  vbs        0.         0.         0.         0.         0.     
  vth     -496.9240m  416.8723m -490.8611m -490.8605m  416.8723m
  vdsat   -132.6317m   98.4262m -191.0020m -106.7610m   98.4262m
  vod     -102.1502m   69.6726m -181.2678m  -66.5242m   69.6726m
  beta       4.4110m    2.3598m    1.5244m    6.4044m   11.7990m
  gam eff  557.0846m  507.4460m  557.0846m  557.0847m  507.4460m
  gm       411.8957u  157.8224u  247.4720u  410.9744u  789.1120u
  gds        6.9257u    1.7058u    1.7649u    7.2544u    8.5289u
  gmb      120.8130u   32.0835u   74.0430u  120.9018u  160.4173u
  cdtot     69.2810f   12.1409f   27.7501f  127.6048f   60.7046f
  cgtot    256.4233f   52.6384f  142.7853f  543.9176f  263.1918f
  cstot    302.9695f   60.4814f  168.6641f  620.5156f  302.4070f
  cbtot    176.5709f   33.4240f   85.0585f  357.3019f  167.1198f
  cgs      214.7400f   44.8908f  123.3481f  448.6919f  224.4541f
  cgd       19.3655f    2.8220f    8.1192f   35.5264f   14.1100f



 ******
 psr+

 ****** ac analysis tnom=  25.000 temp=  25.000 ******
 psp_in_db=-134.1535 

          ***** job concluded
 ******  
 psr+

 ****** job statistics summary tnom=  25.000 temp=  25.000 ******

  ******  Circuit Statistics  ******
  # nodes       =     109 # elements   =      58
  # resistors   =       5 # capacitors =       6 # inductors   =       0
  # mutual_inds =       0 # vccs       =       0 # vcvs        =       0
  # cccs        =       0 # ccvs       =       0 # volt_srcs   =       5
  # curr_srcs   =       1 # diodes     =       0 # bjts        =       0
  # jfets       =       0 # mosfets    =      41 # U elements  =       0
  # T elements  =       0 # W elements =       0 # B elements  =       0
  # S elements  =       0 # P elements =       0 # va device   =       0
  # vector_srcs =       0 # N elements =       0


  ******  Runtime Statistics (seconds)  ******

  analysis           time    # points   tot. iter  conv.iter
  op point           0.07           1         240
  ac analysis        0.00          81          81
  readin             0.01
  errchk             0.01
  setup              0.01
  output             0.00


           peak memory used        203.50 megabytes
           total cpu time            0.10 seconds
           total elapsed time        0.06 seconds
           job started at     00:02:23 06/26/2018
           job ended   at     00:02:24 06/26/2018


 lic: Release hspice token(s) 
 lic: total license checkout elapse time:        0.67(s)
