$DATA1 SOURCE='HSPICE' VERSION='N-2017.12 linux64' PARAM_COUNT=0
$OPTION MEASFORM=2
.TITLE ''
t1 =  1.971e-09
t2 =  4.000e-09
t3 =  6.000e-09
t4 =  8.000e-09
t5 =    failed
t6 =    failed
t7 =    failed
t8 =    failed
freq_1 =  5.074e+08
freq_2 =  2.500e+08
freq_3 =  1.667e+08
freq_4 =  1.250e+08
freq_5 =    failed
freq_6 =    failed
freq_7 =    failed
freq_8 =    failed
freq_1_err =  1.480e-02
freq_2_err =  2.068e-05
freq_3_err =  1.861e-06
freq_4_err =  5.437e-06
freq_5_err =    failed
freq_6_err =    failed
freq_7_err =    failed
freq_8_err =    failed
vdd_energy_1 =  5.378e-12
vdd_energy_2 =  1.523e-11
vdd_energy_3 =  2.255e-11
vdd_energy_4 =  2.992e-11
vdd_energy_5 =    failed
vdd_energy_6 =    failed
vdd_energy_7 =    failed
vdd_energy_8 =    failed
pwr_1 =  1.344e-03
pwr_2 =  1.904e-03
pwr_3 =  1.879e-03
pwr_4 =  1.870e-03
pwr_5 =    failed
pwr_6 =    failed
pwr_7 =    failed
pwr_8 =    failed
total_avg_pwr =    failed
temper =   25.0000
alter# = 1

