Using: /usr/bin/time -p /usr/cad/synopsys/hspice/cur/hspice/linux/hspice Hw2_1_a.sp
 ****** HSPICE -- B-2008.09-SP1 32-BIT (Nov 24 2008) linux ******               
  Copyright (C) 2008 Synopsys, Inc. All Rights Reserved.                        
  Unpublished-rights reserved under US copyright laws.
  This program is protected by law and is subject to the 
  terms and conditions of the license agreement from Synopsys.
  Use of this program is your acceptance to be bound by the 
  license agreement. HSPICE is the trademark of Synopsys, Inc.
  Input File: Hw2_1_a.sp                                                        
 lic:  
 lic: FLEXlm: v8.5b 
 lic: USER:   u102061146           HOSTNAME: ws38 
 lic: HOSTID: e41f1366e298         PID:      13736 
 lic: Using FLEXlm license file: 
 lic: 26585@lsnctu 
 lic: Checkout 1 hspice 
 lic: License/Maintenance for hspice will expire on 14-jun-2015/2014.09 
 lic: FLOATING license(s) on SERVER lsnctu 
 lic:   
 Init: read install configuration file: /usr/cad/synopsys/hspice/cur/hspice/meta.cfg
 Init: hspice initialization file: /usr/cad/synopsys/hspice/cur/hspice/hspice.ini
 .option runlvl
 .temp 25
 .option post dccap=1 acout=0 acct
 .inc 'hw2_1_a.spi'
 ************************************************************************
 * aucdl netlist:
 * 
 * library name:  hw2_1_a
 * top cell name: common_source
 * view name:     schematic
 * netlisted on:  apr  1 19:49:28 2015
 ************************************************************************

 *.bipolar
 *.resi = 2000 
 *.resval
 *.capval
 *.dioperi
 *.dioarea
 *.equation
 *.scale meter
 *.mega
 .param



 ************************************************************************
 * library name: hw2_1_a
 * cell name:    common_source
 * view name:    schematic
 ************************************************************************

 .subckt common_source gnd vin vout
 *.pininfo gnd:i vin:i vout:o
 mm1 vout vin gnd gnd n_18 w=7.5u l=3u m=1
 .ends

 *.param r='10e3' wi=20u vd=1.8 per='2e-6'

 x0 gnd vin vout common_source

 *vout vout gnd dc=0.5
 vgs vin gnd dc=387.232m ac=1
 vdd vdd gnd dc=1.8
 iin vdd vout 2u

 .op
 .dc vgs 0 1.8 0.01
 .ac dec 100 100 1g
 .tf v(vout) vgs
 .end 
1****** HSPICE -- B-2008.09-SP1 32-BIT (Nov 24 2008) linux ******               
 ******  
 *homework 2.1.a

  ******  circuit name directory
 circuit number to circuit name directory
   number circuitname                     definition         multiplier
        0 main circuit
        1 x0.                             common_source      1.00 
 

 
      
  Opening plot unit= 15
 file=Hw2_1_a.pa0                                                              





 ****     small-signal transfer characteristics

        vgs        input resistance at vgs       output resistance at v(vout)     v(vout)/vgs      

       0.                1.000e+20                       3.7373x                 -200.7856 
      10.0000m           1.000e+20                       3.7285x                 -199.1985 
      20.0000m           1.000e+20                       3.7190x                 -197.5509 
      30.0000m           1.000e+20                       3.7088x                 -195.8405 
      40.0000m           1.000e+20                       3.6978x                 -194.0653 
      50.0000m           1.000e+20                       3.6859x                 -192.2233 
      60.0000m           1.000e+20                       3.6732x                 -190.3127 
      70.0000m           1.000e+20                       3.6596x                 -188.3318 
      80.0000m           1.000e+20                       3.6450x                 -186.2793 
      90.0000m           1.000e+20                       3.6295x                 -184.1540 
     100.0000m           1.000e+20                       3.6129x                 -181.9552 
     110.0000m           1.000e+20                       3.5954x                 -179.6829 
     120.0000m           1.000e+20                       3.5768x                 -177.3375 
     130.0000m           1.000e+20                       3.5572x                 -174.9203 
     140.0000m           1.000e+20                       3.5368x                 -172.4335 
     150.0000m           1.000e+20                       3.5154x                 -169.8805 
     160.0000m           1.000e+20                       3.4933x                 -167.2663 
     170.0000m           1.000e+20                       3.4706x                 -164.5974 
     180.0000m           1.000e+20                       3.4475x                 -161.8826 
     190.0000m           1.000e+20                       3.4242x                 -159.1332 
     200.0000m           1.000e+20                       3.4012x                 -156.3637 
     210.0000m           1.000e+20                       3.3788x                 -153.5926 
     220.0000m           1.000e+20                       3.3576x                 -150.8430 
     230.0000m           1.000e+20                       3.3383x                 -148.1439 
     240.0000m           1.000e+20                       3.3218x                 -145.5318 
     250.0000m           1.000e+20                       3.3091x                 -143.0523 
     260.0000m           1.000e+20                       3.3018x                 -140.7632 
     270.0000m           1.000e+20                       3.3016x                 -138.7378 
     280.0000m           1.000e+20                       3.3109x                 -137.0700 
     290.0000m           1.000e+20                       3.3328x                 -135.8818 
     300.0000m           1.000e+20                       3.3714x                 -135.3330 
     310.0000m           1.000e+20                       3.4322x                 -135.6345 
     320.0000m           1.000e+20                       3.5224x                 -137.0618 
     330.0000m           1.000e+20                       3.6508x                 -139.9522 
     340.0000m           1.000e+20                       3.8254x                 -144.6239 
     350.0000m           1.000e+20                       4.0436x                 -151.0015 
     360.0000m           1.000e+20                       4.2607x                 -157.4893 
     370.0000m           1.000e+20                       4.3619x                 -159.8915 
     380.0000m           1.000e+20                       4.3058x                 -156.6566 
     390.0000m           1.000e+20                       1.6005x                  -57.3388 
     400.0000m           1.000e+20                      77.4938k                   -2.3408 
     410.0000m           1.000e+20                      41.9085k                   -1.1106 
     420.0000m           1.000e+20                      29.8733k                 -712.1265m
     430.0000m           1.000e+20                      23.5690k                 -512.1609m
     440.0000m           1.000e+20                      19.5970k                 -391.4635m
     450.0000m           1.000e+20                      16.8285k                 -310.8720m
     460.0000m           1.000e+20                      14.7726k                 -253.5456m
     470.0000m           1.000e+20                      13.1784k                 -210.9634m
     480.0000m           1.000e+20                      11.9025k                 -178.3178m
     490.0000m           1.000e+20                      10.8565k                 -152.6767m
     500.0000m           1.000e+20                       9.9826k                 -132.1454m
     510.0000m           1.000e+20                       9.2410k                 -115.4432m
     520.0000m           1.000e+20                       8.6036k                 -101.6735m
     530.0000m           1.000e+20                       8.0498k                  -90.1907m
     540.0000m           1.000e+20                       7.5640k                  -80.5187m
     550.0000m           1.000e+20                       7.1344k                  -72.2992m
     560.0000m           1.000e+20                       6.7517k                  -65.2583m
     570.0000m           1.000e+20                       6.4087k                  -59.1836m
     580.0000m           1.000e+20                       6.0995k                  -53.9081m
     590.0000m           1.000e+20                       5.8193k                  -49.2990m
     600.0000m           1.000e+20                       5.5642k                  -45.2499m
     610.0000m           1.000e+20                       5.3309k                  -41.6745m
     620.0000m           1.000e+20                       5.1168k                  -38.5025m
     630.0000m           1.000e+20                       4.9197k                  -35.6757m
     640.0000m           1.000e+20                       4.7375k                  -33.1464m
     650.0000m           1.000e+20                       4.5686k                  -30.8744m
     660.0000m           1.000e+20                       4.4116k                  -28.8261m
     670.0000m           1.000e+20                       4.2653k                  -26.9733m
     680.0000m           1.000e+20                       4.1287k                  -25.2920m
     690.0000m           1.000e+20                       4.0007k                  -23.7616m
     700.0000m           1.000e+20                       3.8807k                  -22.3647m
     710.0000m           1.000e+20                       3.7679k                  -21.0863m
     720.0000m           1.000e+20                       3.6616k                  -19.9133m
     730.0000m           1.000e+20                       3.5614k                  -18.8344m
     740.0000m           1.000e+20                       3.4667k                  -17.8398m
     750.0000m           1.000e+20                       3.3770k                  -16.9210m
     760.0000m           1.000e+20                       3.2921k                  -16.0704m
     770.0000m           1.000e+20                       3.2115k                  -15.2815m
     780.0000m           1.000e+20                       3.1348k                  -14.5483m
     790.0000m           1.000e+20                       3.0619k                  -13.8659m
     800.0000m           1.000e+20                       2.9925k                  -13.2295m
     810.0000m           1.000e+20                       2.9263k                  -12.6352m
     820.0000m           1.000e+20                       2.8631k                  -12.0792m
     830.0000m           1.000e+20                       2.8027k                  -11.5585m
     840.0000m           1.000e+20                       2.7449k                  -11.0699m
     850.0000m           1.000e+20                       2.6896k                  -10.6110m
     860.0000m           1.000e+20                       2.6366k                  -10.1793m
     870.0000m           1.000e+20                       2.5858k                   -9.7728m
     880.0000m           1.000e+20                       2.5370k                   -9.3895m
     890.0000m           1.000e+20                       2.4901k                   -9.0277m
     900.0000m           1.000e+20                       2.4451k                   -8.6858m
     910.0000m           1.000e+20                       2.4018k                   -8.3624m
     920.0000m           1.000e+20                       2.3600k                   -8.0562m
     930.0000m           1.000e+20                       2.3199k                   -7.7659m
     940.0000m           1.000e+20                       2.2812k                   -7.4904m
     950.0000m           1.000e+20                       2.2438k                   -7.2289m
     960.0000m           1.000e+20                       2.2078k                   -6.9803m
     970.0000m           1.000e+20                       2.1730k                   -6.7438m
     980.0000m           1.000e+20                       2.1394k                   -6.5186m
     990.0000m           1.000e+20                       2.1070k                   -6.3041m
       1.0000            1.000e+20                       2.0756k                   -6.0995m
       1.0100            1.000e+20                       2.0452k                   -5.9042m
       1.0200            1.000e+20                       2.0158k                   -5.7178m
       1.0300            1.000e+20                       1.9873k                   -5.5396m
       1.0400            1.000e+20                       1.9598k                   -5.3692m
       1.0500            1.000e+20                       1.9330k                   -5.2062m
       1.0600            1.000e+20                       1.9071k                   -5.0500m
       1.0700            1.000e+20                       1.8820k                   -4.9005m
       1.0800            1.000e+20                       1.8576k                   -4.7570m
       1.0900            1.000e+20                       1.8339k                   -4.6195m
       1.1000            1.000e+20                       1.8109k                   -4.4874m
       1.1100            1.000e+20                       1.7886k                   -4.3606m
       1.1200            1.000e+20                       1.7669k                   -4.2387m
       1.1300            1.000e+20                       1.7458k                   -4.1216m
       1.1400            1.000e+20                       1.7253k                   -4.0089m
       1.1500            1.000e+20                       1.7054k                   -3.9004m
       1.1600            1.000e+20                       1.6860k                   -3.7960m
       1.1700            1.000e+20                       1.6671k                   -3.6954m
       1.1800            1.000e+20                       1.6487k                   -3.5985m
       1.1900            1.000e+20                       1.6308k                   -3.5050m
       1.2000            1.000e+20                       1.6134k                   -3.4149m
       1.2100            1.000e+20                       1.5964k                   -3.3279m
       1.2200            1.000e+20                       1.5799k                   -3.2439m
       1.2300            1.000e+20                       1.5637k                   -3.1628m
       1.2400            1.000e+20                       1.5480k                   -3.0844m
       1.2500            1.000e+20                       1.5327k                   -3.0086m
       1.2600            1.000e+20                       1.5177k                   -2.9354m
       1.2700            1.000e+20                       1.5031k                   -2.8645m
       1.2800            1.000e+20                       1.4889k                   -2.7959m
       1.2900            1.000e+20                       1.4750k                   -2.7296m
       1.3000            1.000e+20                       1.4614k                   -2.6653m
       1.3100            1.000e+20                       1.4481k                   -2.6030m
       1.3200            1.000e+20                       1.4352k                   -2.5427m
       1.3300            1.000e+20                       1.4226k                   -2.4842m
       1.3400            1.000e+20                       1.4102k                   -2.4275m
       1.3500            1.000e+20                       1.3981k                   -2.3725m
       1.3600            1.000e+20                       1.3863k                   -2.3191m
       1.3700            1.000e+20                       1.3748k                   -2.2673m
       1.3800            1.000e+20                       1.3635k                   -2.2171m
       1.3900            1.000e+20                       1.3525k                   -2.1682m
       1.4000            1.000e+20                       1.3417k                   -2.1208m
       1.4100            1.000e+20                       1.3312k                   -2.0747m
       1.4200            1.000e+20                       1.3209k                   -2.0299m
       1.4300            1.000e+20                       1.3108k                   -1.9864m
       1.4400            1.000e+20                       1.3009k                   -1.9440m
       1.4500            1.000e+20                       1.2912k                   -1.9028m
       1.4600            1.000e+20                       1.2818k                   -1.8628m
       1.4700            1.000e+20                       1.2725k                   -1.8238m
       1.4800            1.000e+20                       1.2634k                   -1.7858m
       1.4900            1.000e+20                       1.2546k                   -1.7489m
       1.5000            1.000e+20                       1.2459k                   -1.7129m
       1.5100            1.000e+20                       1.2374k                   -1.6778m
       1.5200            1.000e+20                       1.2290k                   -1.6436m
       1.5300            1.000e+20                       1.2208k                   -1.6103m
       1.5400            1.000e+20                       1.2128k                   -1.5779m
       1.5500            1.000e+20                       1.2050k                   -1.5463m
       1.5600            1.000e+20                       1.1973k                   -1.5154m
       1.5700            1.000e+20                       1.1898k                   -1.4853m
       1.5800            1.000e+20                       1.1824k                   -1.4559m
       1.5900            1.000e+20                       1.1752k                   -1.4273m
       1.6000            1.000e+20                       1.1681k                   -1.3993m
       1.6100            1.000e+20                       1.1611k                   -1.3720m
       1.6200            1.000e+20                       1.1543k                   -1.3454m
       1.6300            1.000e+20                       1.1476k                   -1.3194m
       1.6400            1.000e+20                       1.1410k                   -1.2940m
       1.6500            1.000e+20                       1.1346k                   -1.2691m
       1.6600            1.000e+20                       1.1283k                   -1.2449m
       1.6700            1.000e+20                       1.1221k                   -1.2212m
       1.6800            1.000e+20                       1.1160k                   -1.1980m
       1.6900            1.000e+20                       1.1101k                   -1.1753m
       1.7000            1.000e+20                       1.1042k                   -1.1532m
       1.7100            1.000e+20                       1.0985k                   -1.1315m
       1.7200            1.000e+20                       1.0929k                   -1.1103m
       1.7300            1.000e+20                       1.0874k                   -1.0896m
       1.7400            1.000e+20                       1.0819k                   -1.0693m
       1.7500            1.000e+20                       1.0766k                   -1.0495m
       1.7600            1.000e+20                       1.0714k                   -1.0301m
       1.7700            1.000e+20                       1.0663k                   -1.0111m
       1.7800            1.000e+20                       1.0613k                 -992.4523u
       1.7900            1.000e+20                       1.0563k                 -974.2305u
       1.8000            1.000e+20                       1.0515k                 -956.3859u
  
1****** HSPICE -- B-2008.09-SP1 32-BIT (Nov 24 2008) linux ******               
 ******  
 *homework 2.1.a

  ******  operating point information tnom=  25.000 temp=  25.000 *****
 ***** operating point status is all       simulation time is     0.     
    node    =voltage      node    =voltage      node    =voltage

 +0:vdd     =   1.8000  0:vin     = 387.2320m 0:vout    = 498.4193m


 ****  voltage sources

 subckt                        
 element  0:vgs      0:vdd     
  volts    387.2320m    1.8000 
  current    0.        -2.0000u
  power      0.         3.6000u

     total voltage source power dissipation=    3.6000u       watts



 ***** current sources

 subckt             
 element  0:iin     
  volts      1.3016 
  current    2.0000u
  power     -2.6032u


     total current source power dissipation=  -2.6032u       watts


 **** mosfets


 subckt   x0        
 element  1:mm1     
 model    0:n_18.1  
 region     Saturati
  id         2.0000u
  ibs     -3.337e-22
  ibd     -299.8985a
  vgs      387.2320m
  vds      498.4193m
  vbs        0.     
  vth      337.2165m
  vdsat     81.2639m
  vod       50.0155m
  beta     751.6091u
  gam eff  507.4459m
  gm        36.1793u
  gds      242.4679n
  gmb        7.4356u
  cdtot     10.4520f
  cgtot    135.3216f
  cstot    138.0392f
  cbtot     54.8594f
  cgs      116.7255f
  cgd        2.5686f







 ****     small-signal transfer characteristics

      v(vout)/vgs                              = -149.2114 
      input resistance at             vgs      =  1.000e+20
      output resistance at v(vout)             =    4.1243x




          ***** job concluded
1****** HSPICE -- B-2008.09-SP1 32-BIT (Nov 24 2008) linux ******               
 ******  
 *homework 2.1.a

  ******  job statistics summary tnom=  25.000 temp=  25.000 *****

  ******  HSPICE Threads Information  ******
  Command Line Threads Count:                      0
  Available CPU Count:                             8
  Actual Model Evaluation(Load) Threads Count:     1
  Actual Solver Threads Count:                     1


  ******  Circuit Statistics  ******
  # nodes       =       6  # elements   =       4
  # resistors   =       0  # capacitors =       0  # inductors   =       0
  # mutual_inds =       0  # vccs       =       0  # vcvs        =       0
  # cccs        =       0  # ccvs       =       0  # volt_srcs   =       2
  # curr_srcs   =       1  # diodes     =       0  # bjts        =       0
  # jfets       =       0  # mosfets    =       1  # U elements  =       0
  # T elements  =       0  # W elements =       0  # B elements  =       0
  # S elements  =       0  # P elements =       0  # va device   =       0


  ******  Runtime Statistics (seconds)  ******

  analysis           time    # points   tot. iter  conv.iter
  op point           0.00           1           5
  dc sweep           0.00         181         410
  ac analysis        0.01         701         701
  readin             0.03
  errchk             0.00
  setup              0.00
  output             0.00


           total memory used          204  kbytes
           total cpu time            0.04 seconds
           total elapsed time        0.17 seconds
           job started at     21:56:45 04/01/2015
           job ended   at     21:56:46 04/01/2015


 Init: hspice initialization file: /usr/cad/synopsys/hspice/cur/hspice/hspice.ini
 lic: Release hspice token(s) 
