Using: /usr/bin/time -p /usr/cad/synopsys/hspice/cur/hspice/linux/hspice 1b.sp
 ****** HSPICE -- B-2008.09-SP1 32-BIT (Nov 24 2008) linux ******               
  Copyright (C) 2008 Synopsys, Inc. All Rights Reserved.                        
  Unpublished-rights reserved under US copyright laws.
  This program is protected by law and is subject to the 
  terms and conditions of the license agreement from Synopsys.
  Use of this program is your acceptance to be bound by the 
  license agreement. HSPICE is the trademark of Synopsys, Inc.
  Input File: 1b.sp                                                             
 lic:  
 lic: FLEXlm: v8.5b 
 lic: USER:   u102061112           HOSTNAME: ws36 
 lic: HOSTID: e41f1366b708         PID:      2005 
 lic: Using FLEXlm license file: 
 lic: 26585@lsnctu 
 lic: Checkout 1 hspice 
 lic: License/Maintenance for hspice will expire on 14-may-2016/2015.06 
 lic: FLOATING license(s) on SERVER lsnctu 
 lic:   
 Init: read install configuration file: /usr/cad/synopsys/hspice/cur/hspice/meta.cfg
 Init: hspice initialization file: /usr/cad/synopsys/hspice/cur/hspice/hspice.ini
 .option runlvl
 .option post=1 acct captab acout=0


 m3 vp vb gnd gnd n_18 w=10u l=0.5u m=1
 m2 vout+ vin- vp gnd n_18 w=92.4u l=2.8u m=1
 m1 vout- vin+ vp gnd n_18 w=84u l=2.8u m=1


 r1 vdd vout- 100k 
 r0 vdd vout+ 100k 

 ******source******

 vdd vdd 0 dc=1.8
 vin+ vin+ 0 dc 0.9 ac=1
 vin- vin- 0 dc 0.9 ac=1
 vb vb 0 dc=0.49

 ****acm with cp
 *.alter  
 *cp vp 0 100f
 *vin+ vin+ 0 dc 0.9 ac=1
 *vin- vin- 0 dc 0.9 ac=1

 ******analysis******
 .op
 .ac dec 100 1 1g
 .probe vdb(vout+,vout-)
 .print vdb(vout+,vout-)


 *****adm without cp
 .alter
 

 
      
1****** HSPICE -- B-2008.09-SP1 32-BIT (Nov 24 2008) linux ******               
 ******  
 *3.1 without cp

  ******  operating point information tnom=  25.000 temp=  25.000 *****
 ***** operating point status is all       simulation time is     0.     
    node    =voltage      node    =voltage      node    =voltage

 +0:vb      = 490.0000m 0:vdd     =   1.8000  0:vin+    = 900.0000m
 +0:vin-    = 900.0000m 0:vout+   = 756.5263m 0:vout-   = 836.8283m
 +0:vp      = 471.6036m


 maximum nodal capacitance=   1.841E-12         on node     0:vp              

    nodal  capacitance table 

    node    =    cap      node    =    cap      node    =    cap

 +0:vb      =  33.3816f 0:vdd     =   0.      0:vin+    = 978.9792f
 +0:vin-    =   1.0721p 0:vout+   = 121.8681f 0:vout-   = 108.8999f
 +0:vp      =   1.8413p

 

 ****  voltage sources

 subckt                                              
 element  0:vdd      0:vin+     0:vin-     0:vb      
  volts      1.8000   900.0000m  900.0000m  490.0000m
  current  -20.0665u    0.         0.         0.     
  power     36.1196u    0.         0.         0.     

     total voltage source power dissipation=   36.1196u       watts



 **** resistors

 subckt                        
 element  0:r1       0:r0      
  r value  100.0000k  100.0000k
  v drop   963.1717m    1.0435 
  current    9.6317u   10.4347u
  power      9.2770u   10.8884u



 **** mosfets


 subckt                                   
 element  0:m3       0:m2       0:m1      
 model    0:n_18.1   0:n_18.1   0:n_18.1  
 region     Saturati   Saturati   Saturati
  id        20.0665u   10.4347u    9.6317u
  ibs     -3.247e-21   -3.1073f   -2.8280f
  ibd     -366.9043a   -4.9846f   -5.0180f
  vgs      490.0000m  428.3964m  428.3964m
  vds      471.6036m  284.9227m  365.2247m
  vbs        0.      -471.6036m -471.6036m
  vth      443.4287m  427.1945m  426.7406m
  vdsat     92.6322m   62.9459m   63.1123m
  vod       46.5713m    1.2019m    1.6559m
  beta       6.4796m   10.0680m    9.1524m
  gam eff  507.4460m  519.2609m  519.2609m
  gm       352.2155u  231.1341u  212.9797u
  gds        5.8065u    2.1281u    1.8651u
  gmb       68.7356u   38.3990u   35.3127u
  cdtot     13.9021f  121.8681f  108.8999f
  cgtot     33.3816f    1.0721p  978.9792f
  cstot     40.2661f  953.6858f  873.7306f
  cbtot     29.4620f  534.9502f  484.9210f
  cgs       26.2044f  802.1354f  734.3510f
  cgd        3.6522f   32.5123f   29.3132f



 ******  
 *3.1 without cp

  ******  ac analysis tnom=  25.000 temp=  25.000 *****
x

        freq    volt db    
                   vout+   
                   vout-   
    1.00000     -52.1064   
    1.02329     -52.1064   
    1.04713     -52.1064   
    1.07152     -52.1064   
    1.09648     -52.1064   
    1.12202     -52.1064   
    1.14815     -52.1064   
    1.17490     -52.1064   
    1.20226     -52.1064   
    1.23027     -52.1064   
    1.25893     -52.1064   
    1.28825     -52.1064   
    1.31826     -52.1064   
    1.34896     -52.1064   
    1.38038     -52.1064   
    1.41254     -52.1064   
    1.44544     -52.1064   
    1.47911     -52.1064   
    1.51356     -52.1064   
    1.54882     -52.1064   
    1.58489     -52.1064   
    1.62181     -52.1064   
    1.65959     -52.1064   
    1.69824     -52.1064   
    1.73780     -52.1064   
    1.77828     -52.1064   
    1.81970     -52.1064   
    1.86209     -52.1064   
    1.90546     -52.1064   
    1.94984     -52.1064   
    1.99526     -52.1064   
    2.04174     -52.1064   
    2.08930     -52.1064   
    2.13796     -52.1064   
    2.18776     -52.1064   
    2.23872     -52.1064   
    2.29087     -52.1064   
    2.34423     -52.1064   
    2.39883     -52.1064   
    2.45471     -52.1064   
    2.51189     -52.1064   
    2.57040     -52.1064   
    2.63027     -52.1064   
    2.69153     -52.1064   
    2.75423     -52.1064   
    2.81838     -52.1064   
    2.88403     -52.1064   
    2.95121     -52.1064   
    3.01995     -52.1064   
    3.09030     -52.1064   
    3.16228     -52.1064   
    3.23594     -52.1064   
    3.31131     -52.1064   
    3.38844     -52.1064   
    3.46737     -52.1064   
    3.54813     -52.1064   
    3.63078     -52.1064   
    3.71535     -52.1064   
    3.80189     -52.1064   
    3.89045     -52.1064   
    3.98107     -52.1064   
    4.07380     -52.1064   
    4.16869     -52.1064   
    4.26580     -52.1064   
    4.36516     -52.1064   
    4.46684     -52.1064   
    4.57088     -52.1064   
    4.67735     -52.1064   
    4.78630     -52.1064   
    4.89779     -52.1064   
    5.01187     -52.1064   
    5.12861     -52.1064   
    5.24807     -52.1064   
    5.37032     -52.1064   
    5.49541     -52.1064   
    5.62341     -52.1064   
    5.75440     -52.1064   
    5.88844     -52.1064   
    6.02560     -52.1064   
    6.16595     -52.1064   
    6.30957     -52.1064   
    6.45654     -52.1064   
    6.60693     -52.1064   
    6.76083     -52.1064   
    6.91831     -52.1064   
    7.07946     -52.1064   
    7.24436     -52.1064   
    7.41310     -52.1064   
    7.58578     -52.1064   
    7.76247     -52.1064   
    7.94328     -52.1064   
    8.12831     -52.1064   
    8.31764     -52.1064   
    8.51138     -52.1064   
    8.70964     -52.1064   
    8.91251     -52.1064   
    9.12011     -52.1064   
    9.33254     -52.1064   
    9.54993     -52.1064   
    9.77237     -52.1064   
   10.00000     -52.1064   
   10.23293     -52.1064   
   10.47129     -52.1064   
   10.71519     -52.1064   
   10.96478     -52.1064   
   11.22018     -52.1064   
   11.48154     -52.1064   
   11.74898     -52.1064   
   12.02264     -52.1064   
   12.30269     -52.1064   
   12.58925     -52.1064   
   12.88250     -52.1064   
   13.18257     -52.1064   
   13.48963     -52.1064   
   13.80384     -52.1064   
   14.12538     -52.1064   
   14.45440     -52.1064   
   14.79108     -52.1064   
   15.13561     -52.1064   
   15.48817     -52.1064   
   15.84893     -52.1064   
   16.21810     -52.1064   
   16.59587     -52.1064   
   16.98244     -52.1064   
   17.37801     -52.1064   
   17.78279     -52.1064   
   18.19701     -52.1064   
   18.62087     -52.1064   
   19.05461     -52.1064   
   19.49845     -52.1064   
   19.95262     -52.1064   
   20.41738     -52.1064   
   20.89296     -52.1064   
   21.37962     -52.1064   
   21.87762     -52.1064   
   22.38721     -52.1064   
   22.90868     -52.1064   
   23.44229     -52.1064   
   23.98833     -52.1064   
   24.54709     -52.1064   
   25.11886     -52.1064   
   25.70396     -52.1064   
   26.30268     -52.1064   
   26.91535     -52.1064   
   27.54229     -52.1064   
   28.18383     -52.1064   
   28.84032     -52.1064   
   29.51209     -52.1064   
   30.19952     -52.1064   
   30.90295     -52.1064   
   31.62278     -52.1064   
   32.35937     -52.1064   
   33.11311     -52.1064   
   33.88442     -52.1064   
   34.67369     -52.1064   
   35.48134     -52.1064   
   36.30781     -52.1064   
   37.15352     -52.1064   
   38.01894     -52.1064   
   38.90451     -52.1064   
   39.81072     -52.1064   
   40.73803     -52.1064   
   41.68694     -52.1064   
   42.65795     -52.1064   
   43.65158     -52.1064   
   44.66836     -52.1064   
   45.70882     -52.1064   
   46.77351     -52.1064   
   47.86301     -52.1064   
   48.97788     -52.1064   
   50.11872     -52.1064   
   51.28614     -52.1064   
   52.48075     -52.1064   
   53.70318     -52.1064   
   54.95409     -52.1064   
   56.23413     -52.1064   
   57.54399     -52.1064   
   58.88437     -52.1064   
   60.25596     -52.1064   
   61.65950     -52.1064   
   63.09573     -52.1064   
   64.56542     -52.1064   
   66.06934     -52.1064   
   67.60830     -52.1064   
   69.18310     -52.1064   
   70.79458     -52.1064   
   72.44360     -52.1064   
   74.13102     -52.1064   
   75.85776     -52.1064   
   77.62471     -52.1064   
   79.43282     -52.1064   
   81.28305     -52.1064   
   83.17638     -52.1064   
   85.11380     -52.1064   
   87.09636     -52.1064   
   89.12509     -52.1064   
   91.20108     -52.1064   
   93.32543     -52.1064   
   95.49926     -52.1064   
   97.72372     -52.1064   
  100.00000     -52.1064   
  102.32930     -52.1064   
  104.71285     -52.1064   
  107.15193     -52.1064   
  109.64782     -52.1064   
  112.20185     -52.1064   
  114.81536     -52.1064   
  117.48976     -52.1064   
  120.22644     -52.1064   
  123.02688     -52.1064   
  125.89254     -52.1064   
  128.82496     -52.1064   
  131.82567     -52.1064   
  134.89629     -52.1064   
  138.03843     -52.1064   
  141.25375     -52.1064   
  144.54398     -52.1064   
  147.91084     -52.1064   
  151.35612     -52.1064   
  154.88166     -52.1064   
  158.48932     -52.1064   
  162.18101     -52.1064   
  165.95869     -52.1064   
  169.82437     -52.1064   
  173.78008     -52.1064   
  177.82794     -52.1064   
  181.97009     -52.1064   
  186.20871     -52.1064   
  190.54607     -52.1064   
  194.98446     -52.1064   
  199.52623     -52.1064   
  204.17379     -52.1064   
  208.92961     -52.1064   
  213.79621     -52.1064   
  218.77616     -52.1064   
  223.87211     -52.1064   
  229.08677     -52.1064   
  234.42288     -52.1064   
  239.88329     -52.1064   
  245.47089     -52.1064   
  251.18864     -52.1064   
  257.03958     -52.1064   
  263.02680     -52.1064   
  269.15348     -52.1064   
  275.42287     -52.1064   
  281.83829     -52.1064   
  288.40315     -52.1064   
  295.12092     -52.1064   
  301.99517     -52.1064   
  309.02954     -52.1064   
  316.22777     -52.1064   
  323.59366     -52.1064   
  331.13112     -52.1064   
  338.84416     -52.1064   
  346.73685     -52.1064   
  354.81339     -52.1064   
  363.07805     -52.1064   
  371.53523     -52.1064   
  380.18940     -52.1064   
  389.04514     -52.1064   
  398.10717     -52.1064   
  407.38028     -52.1064   
  416.86938     -52.1064   
  426.57952     -52.1064   
  436.51583     -52.1064   
  446.68359     -52.1064   
  457.08819     -52.1064   
  467.73514     -52.1064   
  478.63009     -52.1064   
  489.77882     -52.1064   
  501.18723     -52.1064   
  512.86138     -52.1064   
  524.80746     -52.1064   
  537.03180     -52.1064   
  549.54087     -52.1064   
  562.34133     -52.1064   
  575.43994     -52.1064   
  588.84366     -52.1064   
  602.55959     -52.1064   
  616.59500     -52.1064   
  630.95734     -52.1064   
  645.65423     -52.1064   
  660.69345     -52.1064   
  676.08298     -52.1064   
  691.83097     -52.1064   
  707.94578     -52.1064   
  724.43596     -52.1064   
  741.31024     -52.1064   
  758.57758     -52.1064   
  776.24712     -52.1064   
  794.32823     -52.1064   
  812.83052     -52.1064   
  831.76377     -52.1064   
  851.13804     -52.1064   
  870.96359     -52.1064   
  891.25094     -52.1064   
  912.01084     -52.1064   
  933.25430     -52.1064   
  954.99259     -52.1064   
  977.23722     -52.1064   
    1.00000k    -52.1064   
    1.02329k    -52.1064   
    1.04713k    -52.1064   
    1.07152k    -52.1064   
    1.09648k    -52.1064   
    1.12202k    -52.1064   
    1.14815k    -52.1064   
    1.17490k    -52.1064   
    1.20226k    -52.1064   
    1.23027k    -52.1064   
    1.25893k    -52.1064   
    1.28825k    -52.1064   
    1.31826k    -52.1064   
    1.34896k    -52.1064   
    1.38038k    -52.1064   
    1.41254k    -52.1064   
    1.44544k    -52.1064   
    1.47911k    -52.1064   
    1.51356k    -52.1064   
    1.54882k    -52.1064   
    1.58489k    -52.1064   
    1.62181k    -52.1064   
    1.65959k    -52.1064   
    1.69824k    -52.1064   
    1.73780k    -52.1064   
    1.77828k    -52.1064   
    1.81970k    -52.1064   
    1.86209k    -52.1064   
    1.90546k    -52.1064   
    1.94984k    -52.1064   
    1.99526k    -52.1064   
    2.04174k    -52.1064   
    2.08930k    -52.1064   
    2.13796k    -52.1064   
    2.18776k    -52.1064   
    2.23872k    -52.1064   
    2.29087k    -52.1064   
    2.34423k    -52.1064   
    2.39883k    -52.1064   
    2.45471k    -52.1064   
    2.51189k    -52.1064   
    2.57040k    -52.1064   
    2.63027k    -52.1064   
    2.69153k    -52.1063   
    2.75423k    -52.1063   
    2.81838k    -52.1063   
    2.88403k    -52.1063   
    2.95121k    -52.1063   
    3.01995k    -52.1063   
    3.09030k    -52.1063   
    3.16228k    -52.1063   
    3.23594k    -52.1063   
    3.31131k    -52.1064   
    3.38844k    -52.1064   
    3.46737k    -52.1064   
    3.54813k    -52.1064   
    3.63078k    -52.1064   
    3.71535k    -52.1064   
    3.80189k    -52.1064   
    3.89045k    -52.1064   
    3.98107k    -52.1064   
    4.07380k    -52.1064   
    4.16869k    -52.1064   
    4.26580k    -52.1064   
    4.36516k    -52.1064   
    4.46684k    -52.1064   
    4.57088k    -52.1064   
    4.67735k    -52.1063   
    4.78630k    -52.1063   
    4.89779k    -52.1063   
    5.01187k    -52.1064   
    5.12861k    -52.1064   
    5.24807k    -52.1064   
    5.37032k    -52.1064   
    5.49541k    -52.1064   
    5.62341k    -52.1064   
    5.75440k    -52.1064   
    5.88844k    -52.1063   
    6.02560k    -52.1063   
    6.16595k    -52.1063   
    6.30957k    -52.1063   
    6.45654k    -52.1063   
    6.60693k    -52.1063   
    6.76083k    -52.1063   
    6.91831k    -52.1063   
    7.07946k    -52.1063   
    7.24436k    -52.1063   
    7.41310k    -52.1063   
    7.58578k    -52.1063   
    7.76247k    -52.1063   
    7.94328k    -52.1063   
    8.12831k    -52.1063   
    8.31764k    -52.1063   
    8.51138k    -52.1063   
    8.70964k    -52.1063   
    8.91251k    -52.1063   
    9.12011k    -52.1063   
    9.33254k    -52.1063   
    9.54993k    -52.1063   
    9.77237k    -52.1063   
   10.00000k    -52.1063   
   10.23293k    -52.1063   
   10.47129k    -52.1063   
   10.71519k    -52.1063   
   10.96478k    -52.1062   
   11.22018k    -52.1063   
   11.48154k    -52.1062   
   11.74898k    -52.1063   
   12.02264k    -52.1062   
   12.30269k    -52.1063   
   12.58925k    -52.1062   
   12.88250k    -52.1063   
   13.18257k    -52.1062   
   13.48963k    -52.1063   
   13.80384k    -52.1062   
   14.12538k    -52.1062   
   14.45440k    -52.1062   
   14.79108k    -52.1062   
   15.13561k    -52.1062   
   15.48817k    -52.1062   
   15.84893k    -52.1062   
   16.21810k    -52.1062   
   16.59587k    -52.1062   
   16.98244k    -52.1061   
   17.37801k    -52.1061   
   17.78279k    -52.1061   
   18.19701k    -52.1062   
   18.62087k    -52.1062   
   19.05461k    -52.1062   
   19.49845k    -52.1061   
   19.95262k    -52.1061   
   20.41738k    -52.1061   
   20.89296k    -52.1061   
   21.37962k    -52.1061   
   21.87762k    -52.1060   
   22.38721k    -52.1060   
   22.90868k    -52.1060   
   23.44229k    -52.1060   
   23.98833k    -52.1060   
   24.54709k    -52.1060   
   25.11886k    -52.1059   
   25.70396k    -52.1059   
   26.30268k    -52.1060   
   26.91535k    -52.1059   
   27.54229k    -52.1059   
   28.18383k    -52.1058   
   28.84032k    -52.1058   
   29.51209k    -52.1057   
   30.19952k    -52.1057   
   30.90295k    -52.1057   
   31.62278k    -52.1057   
   32.35937k    -52.1057   
   33.11311k    -52.1057   
   33.88442k    -52.1056   
   34.67369k    -52.1055   
   35.48134k    -52.1055   
   36.30781k    -52.1055   
   37.15352k    -52.1054   
   38.01894k    -52.1054   
   38.90451k    -52.1054   
   39.81072k    -52.1053   
   40.73803k    -52.1053   
   41.68694k    -52.1052   
   42.65795k    -52.1052   
   43.65158k    -52.1051   
   44.66836k    -52.1050   
   45.70882k    -52.1050   
   46.77351k    -52.1049   
   47.86301k    -52.1049   
   48.97788k    -52.1047   
   50.11872k    -52.1047   
   51.28614k    -52.1046   
   52.48075k    -52.1045   
   53.70318k    -52.1045   
   54.95409k    -52.1044   
   56.23413k    -52.1042   
   57.54399k    -52.1041   
   58.88437k    -52.1040   
   60.25596k    -52.1039   
   61.65950k    -52.1038   
   63.09573k    -52.1037   
   64.56542k    -52.1036   
   66.06934k    -52.1035   
   67.60830k    -52.1033   
   69.18310k    -52.1032   
   70.79458k    -52.1030   
   72.44360k    -52.1029   
   74.13102k    -52.1027   
   75.85776k    -52.1025   
   77.62471k    -52.1024   
   79.43282k    -52.1022   
   81.28305k    -52.1020   
   83.17638k    -52.1018   
   85.11380k    -52.1015   
   87.09636k    -52.1014   
   89.12509k    -52.1011   
   91.20108k    -52.1009   
   93.32543k    -52.1006   
   95.49926k    -52.1003   
   97.72372k    -52.1000   
  100.00000k    -52.0997   
  102.32930k    -52.0994   
  104.71285k    -52.0991   
  107.15193k    -52.0987   
  109.64782k    -52.0984   
  112.20185k    -52.0980   
  114.81536k    -52.0976   
  117.48976k    -52.0972   
  120.22644k    -52.0968   
  123.02688k    -52.0963   
  125.89254k    -52.0959   
  128.82496k    -52.0953   
  131.82567k    -52.0949   
  134.89629k    -52.0943   
  138.03843k    -52.0937   
  141.25375k    -52.0931   
  144.54398k    -52.0926   
  147.91084k    -52.0919   
  151.35612k    -52.0912   
  154.88166k    -52.0905   
  158.48932k    -52.0897   
  162.18101k    -52.0889   
  165.95869k    -52.0881   
  169.82437k    -52.0873   
  173.78008k    -52.0864   
  177.82794k    -52.0854   
  181.97009k    -52.0844   
  186.20871k    -52.0834   
  190.54607k    -52.0823   
  194.98446k    -52.0812   
  199.52623k    -52.0800   
  204.17379k    -52.0788   
  208.92961k    -52.0775   
  213.79621k    -52.0762   
  218.77616k    -52.0748   
  223.87211k    -52.0732   
  229.08677k    -52.0717   
  234.42288k    -52.0701   
  239.88329k    -52.0683   
  245.47089k    -52.0665   
  251.18864k    -52.0647   
  257.03958k    -52.0627   
  263.02680k    -52.0607   
  269.15348k    -52.0586   
  275.42287k    -52.0563   
  281.83829k    -52.0540   
  288.40315k    -52.0515   
  295.12092k    -52.0490   
  301.99517k    -52.0463   
  309.02954k    -52.0434   
  316.22777k    -52.0405   
  323.59366k    -52.0374   
  331.13112k    -52.0342   
  338.84416k    -52.0308   
  346.73685k    -52.0273   
  354.81339k    -52.0235   
  363.07805k    -52.0197   
  371.53523k    -52.0157   
  380.18940k    -52.0114   
  389.04514k    -52.0070   
  398.10717k    -52.0023   
  407.38028k    -51.9975   
  416.86938k    -51.9924   
  426.57952k    -51.9871   
  436.51583k    -51.9815   
  446.68359k    -51.9758   
  457.08819k    -51.9697   
  467.73514k    -51.9633   
  478.63009k    -51.9567   
  489.77882k    -51.9497   
  501.18723k    -51.9425   
  512.86138k    -51.9349   
  524.80746k    -51.9269   
  537.03180k    -51.9186   
  549.54087k    -51.9099   
  562.34133k    -51.9009   
  575.43994k    -51.8914   
  588.84366k    -51.8814   
  602.55959k    -51.8711   
  616.59500k    -51.8603   
  630.95734k    -51.8489   
  645.65423k    -51.8371   
  660.69345k    -51.8248   
  676.08298k    -51.8119   
  691.83097k    -51.7984   
  707.94578k    -51.7843   
  724.43596k    -51.7696   
  741.31024k    -51.7543   
  758.57758k    -51.7383   
  776.24712k    -51.7216   
  794.32823k    -51.7042   
  812.83052k    -51.6860   
  831.76377k    -51.6670   
  851.13804k    -51.6472   
  870.96359k    -51.6265   
  891.25094k    -51.6049   
  912.01084k    -51.5825   
  933.25430k    -51.5591   
  954.99259k    -51.5346   
  977.23722k    -51.5092   
    1.00000x    -51.4827   
    1.02329x    -51.4550   
    1.04713x    -51.4263   
    1.07152x    -51.3964   
    1.09648x    -51.3652   
    1.12202x    -51.3328   
    1.14815x    -51.2990   
    1.17490x    -51.2639   
    1.20226x    -51.2274   
    1.23027x    -51.1894   
    1.25893x    -51.1499   
    1.28825x    -51.1090   
    1.31826x    -51.0664   
    1.34896x    -51.0222   
    1.38038x    -50.9762   
    1.41254x    -50.9286   
    1.44544x    -50.8792   
    1.47911x    -50.8279   
    1.51356x    -50.7748   
    1.54882x    -50.7197   
    1.58489x    -50.6626   
    1.62181x    -50.6035   
    1.65959x    -50.5423   
    1.69824x    -50.4790   
    1.73780x    -50.4135   
    1.77828x    -50.3458   
    1.81970x    -50.2758   
    1.86209x    -50.2035   
    1.90546x    -50.1288   
    1.94984x    -50.0517   
    1.99526x    -49.9722   
    2.04174x    -49.8902   
    2.08930x    -49.8056   
    2.13796x    -49.7185   
    2.18776x    -49.6288   
    2.23872x    -49.5364   
    2.29087x    -49.4414   
    2.34423x    -49.3436   
    2.39883x    -49.2431   
    2.45471x    -49.1399   
    2.51189x    -49.0339   
    2.57040x    -48.9251   
    2.63027x    -48.8135   
    2.69153x    -48.6991   
    2.75423x    -48.5817   
    2.81838x    -48.4616   
    2.88403x    -48.3386   
    2.95121x    -48.2127   
    3.01995x    -48.0839   
    3.09030x    -47.9523   
    3.16228x    -47.8179   
    3.23594x    -47.6805   
    3.31131x    -47.5404   
    3.38844x    -47.3974   
    3.46737x    -47.2517   
    3.54813x    -47.1031   
    3.63078x    -46.9518   
    3.71535x    -46.7978   
    3.80189x    -46.6411   
    3.89045x    -46.4817   
    3.98107x    -46.3197   
    4.07380x    -46.1551   
    4.16869x    -45.9880   
    4.26580x    -45.8185   
    4.36516x    -45.6465   
    4.46684x    -45.4721   
    4.57088x    -45.2954   
    4.67735x    -45.1166   
    4.78630x    -44.9355   
    4.89779x    -44.7523   
    5.01187x    -44.5671   
    5.12861x    -44.3800   
    5.24807x    -44.1910   
    5.37032x    -44.0002   
    5.49541x    -43.8078   
    5.62341x    -43.6138   
    5.75440x    -43.4183   
    5.88844x    -43.2213   
    6.02560x    -43.0232   
    6.16595x    -42.8238   
    6.30957x    -42.6234   
    6.45654x    -42.4220   
    6.60693x    -42.2198   
    6.76083x    -42.0169   
    6.91831x    -41.8134   
    7.07946x    -41.6095   
    7.24436x    -41.4053   
    7.41310x    -41.2008   
    7.58578x    -40.9963   
    7.76247x    -40.7919   
    7.94328x    -40.5877   
    8.12831x    -40.3838   
    8.31764x    -40.1805   
    8.51138x    -39.9778   
    8.70964x    -39.7758   
    8.91251x    -39.5748   
    9.12011x    -39.3749   
    9.33254x    -39.1762   
    9.54993x    -38.9789   
    9.77237x    -38.7831   
   10.00000x    -38.5889   
   10.23293x    -38.3965   
   10.47129x    -38.2060   
   10.71519x    -38.0176   
   10.96478x    -37.8314   
   11.22018x    -37.6476   
   11.48154x    -37.4662   
   11.74898x    -37.2874   
   12.02264x    -37.1114   
   12.30269x    -36.9381   
   12.58925x    -36.7679   
   12.88250x    -36.6007   
   13.18257x    -36.4367   
   13.48963x    -36.2760   
   13.80384x    -36.1187   
   14.12538x    -35.9649   
   14.45440x    -35.8147   
   14.79108x    -35.6681   
   15.13561x    -35.5253   
   15.48817x    -35.3863   
   15.84893x    -35.2513   
   16.21810x    -35.1202   
   16.59587x    -34.9932   
   16.98244x    -34.8702   
   17.37801x    -34.7515   
   17.78279x    -34.6369   
   18.19701x    -34.5266   
   18.62087x    -34.4205   
   19.05461x    -34.3188   
   19.49845x    -34.2215   
   19.95262x    -34.1285   
   20.41738x    -34.0400   
   20.89296x    -33.9559   
   21.37962x    -33.8762   
   21.87762x    -33.8011   
   22.38721x    -33.7304   
   22.90868x    -33.6641   
   23.44229x    -33.6024   
   23.98833x    -33.5451   
   24.54709x    -33.4924   
   25.11886x    -33.4441   
   25.70396x    -33.4003   
   26.30268x    -33.3609   
   26.91535x    -33.3260   
   27.54229x    -33.2955   
   28.18383x    -33.2695   
   28.84032x    -33.2478   
   29.51209x    -33.2306   
   30.19952x    -33.2177   
   30.90295x    -33.2091   
   31.62278x    -33.2049   
   32.35937x    -33.2049   
   33.11311x    -33.2093   
   33.88442x    -33.2178   
   34.67369x    -33.2306   
   35.48134x    -33.2476   
   36.30781x    -33.2687   
   37.15352x    -33.2939   
   38.01894x    -33.3232   
   38.90451x    -33.3565   
   39.81072x    -33.3938   
   40.73803x    -33.4352   
   41.68694x    -33.4804   
   42.65795x    -33.5295   
   43.65158x    -33.5825   
   44.66836x    -33.6392   
   45.70882x    -33.6998   
   46.77351x    -33.7640   
   47.86301x    -33.8319   
   48.97788x    -33.9034   
   50.11872x    -33.9785   
   51.28614x    -34.0571   
   52.48075x    -34.1391   
   53.70318x    -34.2246   
   54.95409x    -34.3134   
   56.23413x    -34.4055   
   57.54399x    -34.5008   
   58.88437x    -34.5993   
   60.25596x    -34.7009   
   61.65950x    -34.8056   
   63.09573x    -34.9133   
   64.56542x    -35.0240   
   66.06934x    -35.1375   
   67.60830x    -35.2539   
   69.18310x    -35.3730   
   70.79458x    -35.4948   
   72.44360x    -35.6192   
   74.13102x    -35.7462   
   75.85776x    -35.8757   
   77.62471x    -36.0076   
   79.43282x    -36.1420   
   81.28305x    -36.2786   
   83.17638x    -36.4175   
   85.11380x    -36.5586   
   87.09636x    -36.7018   
   89.12509x    -36.8471   
   91.20108x    -36.9944   
   93.32543x    -37.1437   
   95.49926x    -37.2948   
   97.72372x    -37.4478   
  100.00000x    -37.6025   
  102.32930x    -37.7590   
  104.71285x    -37.9172   
  107.15193x    -38.0769   
  109.64782x    -38.2382   
  112.20185x    -38.4011   
  114.81536x    -38.5653   
  117.48976x    -38.7310   
  120.22644x    -38.8980   
  123.02688x    -39.0664   
  125.89254x    -39.2359   
  128.82496x    -39.4068   
  131.82567x    -39.5787   
  134.89629x    -39.7518   
  138.03843x    -39.9260   
  141.25375x    -40.1013   
  144.54398x    -40.2775   
  147.91084x    -40.4547   
  151.35612x    -40.6328   
  154.88166x    -40.8118   
  158.48932x    -40.9917   
  162.18101x    -41.1724   
  165.95869x    -41.3539   
  169.82437x    -41.5361   
  173.78008x    -41.7191   
  177.82794x    -41.9027   
  181.97009x    -42.0871   
  186.20871x    -42.2720   
  190.54607x    -42.4576   
  194.98446x    -42.6438   
  199.52623x    -42.8305   
  204.17379x    -43.0177   
  208.92961x    -43.2055   
  213.79621x    -43.3937   
  218.77616x    -43.5824   
  223.87211x    -43.7716   
  229.08677x    -43.9612   
  234.42288x    -44.1512   
  239.88329x    -44.3416   
  245.47089x    -44.5323   
  251.18864x    -44.7234   
  257.03958x    -44.9148   
  263.02680x    -45.1066   
  269.15348x    -45.2986   
  275.42287x    -45.4909   
  281.83829x    -45.6835   
  288.40315x    -45.8763   
  295.12092x    -46.0694   
  301.99517x    -46.2627   
  309.02954x    -46.4562   
  316.22777x    -46.6499   
  323.59366x    -46.8438   
  331.13112x    -47.0379   
  338.84416x    -47.2321   
  346.73685x    -47.4265   
  354.81339x    -47.6210   
  363.07805x    -47.8157   
  371.53523x    -48.0104   
  380.18940x    -48.2053   
  389.04514x    -48.4002   
  398.10717x    -48.5953   
  407.38028x    -48.7904   
  416.86938x    -48.9856   
  426.57952x    -49.1808   
  436.51583x    -49.3761   
  446.68359x    -49.5714   
  457.08819x    -49.7667   
  467.73514x    -49.9621   
  478.63009x    -50.1574   
  489.77882x    -50.3528   
  501.18723x    -50.5481   
  512.86138x    -50.7434   
  524.80746x    -50.9387   
  537.03180x    -51.1340   
  549.54087x    -51.3292   
  562.34133x    -51.5243   
  575.43994x    -51.7194   
  588.84366x    -51.9143   
  602.55959x    -52.1092   
  616.59500x    -52.3040   
  630.95734x    -52.4987   
  645.65423x    -52.6932   
  660.69345x    -52.8876   
  676.08298x    -53.0819   
  691.83097x    -53.2760   
  707.94578x    -53.4699   
  724.43596x    -53.6637   
  741.31024x    -53.8573   
  758.57758x    -54.0506   
  776.24712x    -54.2438   
  794.32823x    -54.4366   
  812.83052x    -54.6293   
  831.76377x    -54.8217   
  851.13804x    -55.0138   
  870.96359x    -55.2056   
  891.25094x    -55.3972   
  912.01084x    -55.5884   
  933.25430x    -55.7793   
  954.99259x    -55.9698   
  977.23722x    -56.1599   
    1.00000g    -56.3496   
y

          ***** job concluded
1****** HSPICE -- B-2008.09-SP1 32-BIT (Nov 24 2008) linux ******               
 ******  
 *3.1 without cp

  ******  job statistics summary tnom=  25.000 temp=  25.000 *****

  ******  HSPICE Threads Information  ******
  Command Line Threads Count:                      0
  Available CPU Count:                             8
  Actual Model Evaluation(Load) Threads Count:     1
  Actual Solver Threads Count:                     1


  ******  Circuit Statistics  ******
  # nodes       =      14  # elements   =       9
  # resistors   =       2  # capacitors =       0  # inductors   =       0
  # mutual_inds =       0  # vccs       =       0  # vcvs        =       0
  # cccs        =       0  # ccvs       =       0  # volt_srcs   =       4
  # curr_srcs   =       0  # diodes     =       0  # bjts        =       0
  # jfets       =       0  # mosfets    =       3  # U elements  =       0
  # T elements  =       0  # W elements =       0  # B elements  =       0
  # S elements  =       0  # P elements =       0  # va device   =       0


  ******  Runtime Statistics (seconds)  ******

  analysis           time    # points   tot. iter  conv.iter
  op point           0.00           1           7
  ac analysis        0.01         901         901
  readin             0.02
  errchk             0.01
  setup              0.00
  output             0.00


           total memory used          209  kbytes
           total cpu time            0.04 seconds
           total elapsed time        0.19 seconds
           job started at     13:05:25 05/06/2016
           job ended   at     13:05:26 05/06/2016


1****** HSPICE -- B-2008.09-SP1 32-BIT (Nov 24 2008) linux ******               
 ******  
 

  ******    alter processing listing tnom=  25.000 temp=  25.000 *****
 vin+ vin+ 0 dc 0.9 ac=0.5 180
 vin- vin- 0 dc 0.9 ac=0.5 0

 *****adm with cp
 *.alter
 *cp vp 0 100f
 *vin+ vin+ 0 dc 0.9 ac=0.5 180
 *vin- vin- 0 dc 0.9 ac=0.5 0

 .end
 $ end of alter processing $
 
      
1****** HSPICE -- B-2008.09-SP1 32-BIT (Nov 24 2008) linux ******               
 ******  
 *3.1 without cp

  ******  operating point information tnom=  25.000 temp=  25.000 *****
 ***** operating point status is all       simulation time is     0.     
    node    =voltage      node    =voltage      node    =voltage

 +0:vb      = 490.0000m 0:vdd     =   1.8000  0:vin+    = 900.0000m
 +0:vin-    = 900.0000m 0:vout+   = 756.5263m 0:vout-   = 836.8283m
 +0:vp      = 471.6036m


 maximum nodal capacitance=   1.841E-12         on node     0:vp              

    nodal  capacitance table 

    node    =    cap      node    =    cap      node    =    cap

 +0:vb      =  33.3816f 0:vdd     =   0.      0:vin+    = 978.9792f
 +0:vin-    =   1.0721p 0:vout+   = 121.8681f 0:vout-   = 108.8999f
 +0:vp      =   1.8413p

 

 ****  voltage sources

 subckt                                              
 element  0:vdd      0:vin+     0:vin-     0:vb      
  volts      1.8000   900.0000m  900.0000m  490.0000m
  current  -20.0665u    0.         0.         0.     
  power     36.1196u    0.         0.         0.     

     total voltage source power dissipation=   36.1196u       watts



 **** resistors

 subckt                        
 element  0:r1       0:r0      
  r value  100.0000k  100.0000k
  v drop   963.1717m    1.0435 
  current    9.6317u   10.4347u
  power      9.2770u   10.8884u



 **** mosfets


 subckt                                   
 element  0:m3       0:m2       0:m1      
 model    0:n_18.1   0:n_18.1   0:n_18.1  
 region     Saturati   Saturati   Saturati
  id        20.0665u   10.4347u    9.6317u
  ibs     -3.247e-21   -3.1073f   -2.8280f
  ibd     -366.9043a   -4.9846f   -5.0180f
  vgs      490.0000m  428.3964m  428.3964m
  vds      471.6036m  284.9227m  365.2247m
  vbs        0.      -471.6036m -471.6036m
  vth      443.4287m  427.1945m  426.7406m
  vdsat     92.6322m   62.9459m   63.1123m
  vod       46.5713m    1.2019m    1.6559m
  beta       6.4796m   10.0680m    9.1524m
  gam eff  507.4460m  519.2609m  519.2609m
  gm       352.2155u  231.1341u  212.9797u
  gds        5.8065u    2.1281u    1.8651u
  gmb       68.7356u   38.3990u   35.3127u
  cdtot     13.9021f  121.8681f  108.8999f
  cgtot     33.3816f    1.0721p  978.9792f
  cstot     40.2661f  953.6858f  873.7306f
  cbtot     29.4620f  534.9502f  484.9210f
  cgs       26.2044f  802.1354f  734.3510f
  cgd        3.6522f   32.5123f   29.3132f



 ******  
 *3.1 without cp

  ******  ac analysis tnom=  25.000 temp=  25.000 *****
x

        freq    volt db    
                   vout+   
                   vout-   
    1.00000      25.3375   
    1.02329      25.3375   
    1.04713      25.3375   
    1.07152      25.3375   
    1.09648      25.3375   
    1.12202      25.3375   
    1.14815      25.3375   
    1.17490      25.3375   
    1.20226      25.3375   
    1.23027      25.3375   
    1.25893      25.3375   
    1.28825      25.3375   
    1.31826      25.3375   
    1.34896      25.3375   
    1.38038      25.3375   
    1.41254      25.3375   
    1.44544      25.3375   
    1.47911      25.3375   
    1.51356      25.3375   
    1.54882      25.3375   
    1.58489      25.3375   
    1.62181      25.3375   
    1.65959      25.3375   
    1.69824      25.3375   
    1.73780      25.3375   
    1.77828      25.3375   
    1.81970      25.3375   
    1.86209      25.3375   
    1.90546      25.3375   
    1.94984      25.3375   
    1.99526      25.3375   
    2.04174      25.3375   
    2.08930      25.3375   
    2.13796      25.3375   
    2.18776      25.3375   
    2.23872      25.3375   
    2.29087      25.3375   
    2.34423      25.3375   
    2.39883      25.3375   
    2.45471      25.3375   
    2.51189      25.3375   
    2.57040      25.3375   
    2.63027      25.3375   
    2.69153      25.3375   
    2.75423      25.3375   
    2.81838      25.3375   
    2.88403      25.3375   
    2.95121      25.3375   
    3.01995      25.3375   
    3.09030      25.3375   
    3.16228      25.3375   
    3.23594      25.3375   
    3.31131      25.3375   
    3.38844      25.3375   
    3.46737      25.3375   
    3.54813      25.3375   
    3.63078      25.3375   
    3.71535      25.3375   
    3.80189      25.3375   
    3.89045      25.3375   
    3.98107      25.3375   
    4.07380      25.3375   
    4.16869      25.3375   
    4.26580      25.3375   
    4.36516      25.3375   
    4.46684      25.3375   
    4.57088      25.3375   
    4.67735      25.3375   
    4.78630      25.3375   
    4.89779      25.3375   
    5.01187      25.3375   
    5.12861      25.3375   
    5.24807      25.3375   
    5.37032      25.3375   
    5.49541      25.3375   
    5.62341      25.3375   
    5.75440      25.3375   
    5.88844      25.3375   
    6.02560      25.3375   
    6.16595      25.3375   
    6.30957      25.3375   
    6.45654      25.3375   
    6.60693      25.3375   
    6.76083      25.3375   
    6.91831      25.3375   
    7.07946      25.3375   
    7.24436      25.3375   
    7.41310      25.3375   
    7.58578      25.3375   
    7.76247      25.3375   
    7.94328      25.3375   
    8.12831      25.3375   
    8.31764      25.3375   
    8.51138      25.3375   
    8.70964      25.3375   
    8.91251      25.3375   
    9.12011      25.3375   
    9.33254      25.3375   
    9.54993      25.3375   
    9.77237      25.3375   
   10.00000      25.3375   
   10.23293      25.3375   
   10.47129      25.3375   
   10.71519      25.3375   
   10.96478      25.3375   
   11.22018      25.3375   
   11.48154      25.3375   
   11.74898      25.3375   
   12.02264      25.3375   
   12.30269      25.3375   
   12.58925      25.3375   
   12.88250      25.3375   
   13.18257      25.3375   
   13.48963      25.3375   
   13.80384      25.3375   
   14.12538      25.3375   
   14.45440      25.3375   
   14.79108      25.3375   
   15.13561      25.3375   
   15.48817      25.3375   
   15.84893      25.3375   
   16.21810      25.3375   
   16.59587      25.3375   
   16.98244      25.3375   
   17.37801      25.3375   
   17.78279      25.3375   
   18.19701      25.3375   
   18.62087      25.3375   
   19.05461      25.3375   
   19.49845      25.3375   
   19.95262      25.3375   
   20.41738      25.3375   
   20.89296      25.3375   
   21.37962      25.3375   
   21.87762      25.3375   
   22.38721      25.3375   
   22.90868      25.3375   
   23.44229      25.3375   
   23.98833      25.3375   
   24.54709      25.3375   
   25.11886      25.3375   
   25.70396      25.3375   
   26.30268      25.3375   
   26.91535      25.3375   
   27.54229      25.3375   
   28.18383      25.3375   
   28.84032      25.3375   
   29.51209      25.3375   
   30.19952      25.3375   
   30.90295      25.3375   
   31.62278      25.3375   
   32.35937      25.3375   
   33.11311      25.3375   
   33.88442      25.3375   
   34.67369      25.3375   
   35.48134      25.3375   
   36.30781      25.3375   
   37.15352      25.3375   
   38.01894      25.3375   
   38.90451      25.3375   
   39.81072      25.3375   
   40.73803      25.3375   
   41.68694      25.3375   
   42.65795      25.3375   
   43.65158      25.3375   
   44.66836      25.3375   
   45.70882      25.3375   
   46.77351      25.3375   
   47.86301      25.3375   
   48.97788      25.3375   
   50.11872      25.3375   
   51.28614      25.3375   
   52.48075      25.3375   
   53.70318      25.3375   
   54.95409      25.3375   
   56.23413      25.3375   
   57.54399      25.3375   
   58.88437      25.3375   
   60.25596      25.3375   
   61.65950      25.3375   
   63.09573      25.3375   
   64.56542      25.3375   
   66.06934      25.3375   
   67.60830      25.3375   
   69.18310      25.3375   
   70.79458      25.3375   
   72.44360      25.3375   
   74.13102      25.3375   
   75.85776      25.3375   
   77.62471      25.3375   
   79.43282      25.3375   
   81.28305      25.3375   
   83.17638      25.3375   
   85.11380      25.3375   
   87.09636      25.3375   
   89.12509      25.3375   
   91.20108      25.3375   
   93.32543      25.3375   
   95.49926      25.3375   
   97.72372      25.3375   
  100.00000      25.3375   
  102.32930      25.3375   
  104.71285      25.3375   
  107.15193      25.3375   
  109.64782      25.3375   
  112.20185      25.3375   
  114.81536      25.3375   
  117.48976      25.3375   
  120.22644      25.3375   
  123.02688      25.3375   
  125.89254      25.3375   
  128.82496      25.3375   
  131.82567      25.3375   
  134.89629      25.3375   
  138.03843      25.3375   
  141.25375      25.3375   
  144.54398      25.3375   
  147.91084      25.3375   
  151.35612      25.3375   
  154.88166      25.3375   
  158.48932      25.3375   
  162.18101      25.3375   
  165.95869      25.3375   
  169.82437      25.3375   
  173.78008      25.3375   
  177.82794      25.3375   
  181.97009      25.3375   
  186.20871      25.3375   
  190.54607      25.3375   
  194.98446      25.3375   
  199.52623      25.3375   
  204.17379      25.3375   
  208.92961      25.3375   
  213.79621      25.3375   
  218.77616      25.3375   
  223.87211      25.3375   
  229.08677      25.3375   
  234.42288      25.3375   
  239.88329      25.3375   
  245.47089      25.3375   
  251.18864      25.3375   
  257.03958      25.3375   
  263.02680      25.3375   
  269.15348      25.3375   
  275.42287      25.3375   
  281.83829      25.3375   
  288.40315      25.3375   
  295.12092      25.3375   
  301.99517      25.3375   
  309.02954      25.3375   
  316.22777      25.3375   
  323.59366      25.3375   
  331.13112      25.3375   
  338.84416      25.3375   
  346.73685      25.3375   
  354.81339      25.3375   
  363.07805      25.3375   
  371.53523      25.3375   
  380.18940      25.3375   
  389.04514      25.3375   
  398.10717      25.3375   
  407.38028      25.3375   
  416.86938      25.3375   
  426.57952      25.3375   
  436.51583      25.3375   
  446.68359      25.3375   
  457.08819      25.3375   
  467.73514      25.3375   
  478.63009      25.3375   
  489.77882      25.3375   
  501.18723      25.3375   
  512.86138      25.3375   
  524.80746      25.3375   
  537.03180      25.3375   
  549.54087      25.3375   
  562.34133      25.3375   
  575.43994      25.3375   
  588.84366      25.3375   
  602.55959      25.3375   
  616.59500      25.3375   
  630.95734      25.3375   
  645.65423      25.3375   
  660.69345      25.3375   
  676.08298      25.3375   
  691.83097      25.3375   
  707.94578      25.3375   
  724.43596      25.3375   
  741.31024      25.3375   
  758.57758      25.3375   
  776.24712      25.3375   
  794.32823      25.3375   
  812.83052      25.3375   
  831.76377      25.3375   
  851.13804      25.3375   
  870.96359      25.3375   
  891.25094      25.3375   
  912.01084      25.3375   
  933.25430      25.3375   
  954.99259      25.3375   
  977.23722      25.3375   
    1.00000k     25.3375   
    1.02329k     25.3375   
    1.04713k     25.3375   
    1.07152k     25.3375   
    1.09648k     25.3375   
    1.12202k     25.3375   
    1.14815k     25.3375   
    1.17490k     25.3375   
    1.20226k     25.3375   
    1.23027k     25.3375   
    1.25893k     25.3375   
    1.28825k     25.3375   
    1.31826k     25.3375   
    1.34896k     25.3375   
    1.38038k     25.3375   
    1.41254k     25.3375   
    1.44544k     25.3375   
    1.47911k     25.3375   
    1.51356k     25.3375   
    1.54882k     25.3375   
    1.58489k     25.3375   
    1.62181k     25.3375   
    1.65959k     25.3375   
    1.69824k     25.3375   
    1.73780k     25.3375   
    1.77828k     25.3375   
    1.81970k     25.3375   
    1.86209k     25.3375   
    1.90546k     25.3375   
    1.94984k     25.3375   
    1.99526k     25.3375   
    2.04174k     25.3375   
    2.08930k     25.3375   
    2.13796k     25.3375   
    2.18776k     25.3375   
    2.23872k     25.3375   
    2.29087k     25.3375   
    2.34423k     25.3375   
    2.39883k     25.3375   
    2.45471k     25.3375   
    2.51189k     25.3375   
    2.57040k     25.3375   
    2.63027k     25.3375   
    2.69153k     25.3375   
    2.75423k     25.3375   
    2.81838k     25.3375   
    2.88403k     25.3375   
    2.95121k     25.3375   
    3.01995k     25.3375   
    3.09030k     25.3375   
    3.16228k     25.3375   
    3.23594k     25.3375   
    3.31131k     25.3375   
    3.38844k     25.3375   
    3.46737k     25.3375   
    3.54813k     25.3375   
    3.63078k     25.3375   
    3.71535k     25.3375   
    3.80189k     25.3375   
    3.89045k     25.3375   
    3.98107k     25.3375   
    4.07380k     25.3375   
    4.16869k     25.3375   
    4.26580k     25.3375   
    4.36516k     25.3375   
    4.46684k     25.3375   
    4.57088k     25.3375   
    4.67735k     25.3375   
    4.78630k     25.3375   
    4.89779k     25.3375   
    5.01187k     25.3375   
    5.12861k     25.3375   
    5.24807k     25.3375   
    5.37032k     25.3375   
    5.49541k     25.3375   
    5.62341k     25.3375   
    5.75440k     25.3375   
    5.88844k     25.3375   
    6.02560k     25.3375   
    6.16595k     25.3375   
    6.30957k     25.3375   
    6.45654k     25.3375   
    6.60693k     25.3375   
    6.76083k     25.3375   
    6.91831k     25.3375   
    7.07946k     25.3375   
    7.24436k     25.3375   
    7.41310k     25.3375   
    7.58578k     25.3375   
    7.76247k     25.3375   
    7.94328k     25.3375   
    8.12831k     25.3375   
    8.31764k     25.3375   
    8.51138k     25.3375   
    8.70964k     25.3375   
    8.91251k     25.3375   
    9.12011k     25.3375   
    9.33254k     25.3375   
    9.54993k     25.3375   
    9.77237k     25.3375   
   10.00000k     25.3375   
   10.23293k     25.3375   
   10.47129k     25.3375   
   10.71519k     25.3375   
   10.96478k     25.3375   
   11.22018k     25.3375   
   11.48154k     25.3375   
   11.74898k     25.3375   
   12.02264k     25.3375   
   12.30269k     25.3375   
   12.58925k     25.3375   
   12.88250k     25.3375   
   13.18257k     25.3375   
   13.48963k     25.3375   
   13.80384k     25.3375   
   14.12538k     25.3375   
   14.45440k     25.3375   
   14.79108k     25.3375   
   15.13561k     25.3375   
   15.48817k     25.3375   
   15.84893k     25.3375   
   16.21810k     25.3375   
   16.59587k     25.3375   
   16.98244k     25.3375   
   17.37801k     25.3375   
   17.78279k     25.3375   
   18.19701k     25.3375   
   18.62087k     25.3374   
   19.05461k     25.3375   
   19.49845k     25.3374   
   19.95262k     25.3374   
   20.41738k     25.3374   
   20.89296k     25.3374   
   21.37962k     25.3374   
   21.87762k     25.3374   
   22.38721k     25.3374   
   22.90868k     25.3374   
   23.44229k     25.3374   
   23.98833k     25.3374   
   24.54709k     25.3374   
   25.11886k     25.3374   
   25.70396k     25.3374   
   26.30268k     25.3374   
   26.91535k     25.3374   
   27.54229k     25.3374   
   28.18383k     25.3374   
   28.84032k     25.3374   
   29.51209k     25.3374   
   30.19952k     25.3374   
   30.90295k     25.3374   
   31.62278k     25.3374   
   32.35937k     25.3374   
   33.11311k     25.3374   
   33.88442k     25.3374   
   34.67369k     25.3374   
   35.48134k     25.3374   
   36.30781k     25.3374   
   37.15352k     25.3374   
   38.01894k     25.3374   
   38.90451k     25.3374   
   39.81072k     25.3374   
   40.73803k     25.3374   
   41.68694k     25.3374   
   42.65795k     25.3374   
   43.65158k     25.3374   
   44.66836k     25.3374   
   45.70882k     25.3374   
   46.77351k     25.3374   
   47.86301k     25.3374   
   48.97788k     25.3374   
   50.11872k     25.3374   
   51.28614k     25.3374   
   52.48075k     25.3374   
   53.70318k     25.3374   
   54.95409k     25.3374   
   56.23413k     25.3374   
   57.54399k     25.3374   
   58.88437k     25.3374   
   60.25596k     25.3374   
   61.65950k     25.3374   
   63.09573k     25.3374   
   64.56542k     25.3374   
   66.06934k     25.3374   
   67.60830k     25.3374   
   69.18310k     25.3374   
   70.79458k     25.3374   
   72.44360k     25.3374   
   74.13102k     25.3374   
   75.85776k     25.3374   
   77.62471k     25.3374   
   79.43282k     25.3374   
   81.28305k     25.3374   
   83.17638k     25.3373   
   85.11380k     25.3373   
   87.09636k     25.3373   
   89.12509k     25.3373   
   91.20108k     25.3373   
   93.32543k     25.3373   
   95.49926k     25.3373   
   97.72372k     25.3373   
  100.00000k     25.3373   
  102.32930k     25.3373   
  104.71285k     25.3373   
  107.15193k     25.3373   
  109.64782k     25.3373   
  112.20185k     25.3373   
  114.81536k     25.3372   
  117.48976k     25.3372   
  120.22644k     25.3372   
  123.02688k     25.3372   
  125.89254k     25.3372   
  128.82496k     25.3372   
  131.82567k     25.3372   
  134.89629k     25.3372   
  138.03843k     25.3372   
  141.25375k     25.3371   
  144.54398k     25.3371   
  147.91084k     25.3371   
  151.35612k     25.3371   
  154.88166k     25.3371   
  158.48932k     25.3371   
  162.18101k     25.3370   
  165.95869k     25.3370   
  169.82437k     25.3370   
  173.78008k     25.3370   
  177.82794k     25.3370   
  181.97009k     25.3369   
  186.20871k     25.3369   
  190.54607k     25.3369   
  194.98446k     25.3368   
  199.52623k     25.3368   
  204.17379k     25.3368   
  208.92961k     25.3368   
  213.79621k     25.3367   
  218.77616k     25.3367   
  223.87211k     25.3367   
  229.08677k     25.3366   
  234.42288k     25.3366   
  239.88329k     25.3365   
  245.47089k     25.3365   
  251.18864k     25.3364   
  257.03958k     25.3364   
  263.02680k     25.3364   
  269.15348k     25.3363   
  275.42287k     25.3362   
  281.83829k     25.3362   
  288.40315k     25.3361   
  295.12092k     25.3361   
  301.99517k     25.3360   
  309.02954k     25.3359   
  316.22777k     25.3359   
  323.59366k     25.3358   
  331.13112k     25.3357   
  338.84416k     25.3356   
  346.73685k     25.3355   
  354.81339k     25.3354   
  363.07805k     25.3353   
  371.53523k     25.3352   
  380.18940k     25.3351   
  389.04514k     25.3350   
  398.10717k     25.3349   
  407.38028k     25.3348   
  416.86938k     25.3347   
  426.57952k     25.3345   
  436.51583k     25.3344   
  446.68359k     25.3343   
  457.08819k     25.3341   
  467.73514k     25.3340   
  478.63009k     25.3338   
  489.77882k     25.3336   
  501.18723k     25.3334   
  512.86138k     25.3333   
  524.80746k     25.3331   
  537.03180k     25.3329   
  549.54087k     25.3326   
  562.34133k     25.3324   
  575.43994k     25.3322   
  588.84366k     25.3319   
  602.55959k     25.3317   
  616.59500k     25.3314   
  630.95734k     25.3311   
  645.65423k     25.3308   
  660.69345k     25.3305   
  676.08298k     25.3302   
  691.83097k     25.3298   
  707.94578k     25.3295   
  724.43596k     25.3291   
  741.31024k     25.3287   
  758.57758k     25.3283   
  776.24712k     25.3278   
  794.32823k     25.3274   
  812.83052k     25.3269   
  831.76377k     25.3264   
  851.13804k     25.3259   
  870.96359k     25.3254   
  891.25094k     25.3248   
  912.01084k     25.3242   
  933.25430k     25.3236   
  954.99259k     25.3229   
  977.23722k     25.3222   
    1.00000x     25.3215   
    1.02329x     25.3208   
    1.04713x     25.3200   
    1.07152x     25.3191   
    1.09648x     25.3183   
    1.12202x     25.3174   
    1.14815x     25.3164   
    1.17490x     25.3155   
    1.20226x     25.3144   
    1.23027x     25.3133   
    1.25893x     25.3122   
    1.28825x     25.3110   
    1.31826x     25.3098   
    1.34896x     25.3085   
    1.38038x     25.3071   
    1.41254x     25.3057   
    1.44544x     25.3042   
    1.47911x     25.3026   
    1.51356x     25.3010   
    1.54882x     25.2993   
    1.58489x     25.2975   
    1.62181x     25.2956   
    1.65959x     25.2937   
    1.69824x     25.2916   
    1.73780x     25.2895   
    1.77828x     25.2872   
    1.81970x     25.2849   
    1.86209x     25.2824   
    1.90546x     25.2798   
    1.94984x     25.2771   
    1.99526x     25.2743   
    2.04174x     25.2714   
    2.08930x     25.2683   
    2.13796x     25.2650   
    2.18776x     25.2617   
    2.23872x     25.2581   
    2.29087x     25.2544   
    2.34423x     25.2506   
    2.39883x     25.2465   
    2.45471x     25.2423   
    2.51189x     25.2378   
    2.57040x     25.2332   
    2.63027x     25.2283   
    2.69153x     25.2233   
    2.75423x     25.2180   
    2.81838x     25.2124   
    2.88403x     25.2066   
    2.95121x     25.2005   
    3.01995x     25.1942   
    3.09030x     25.1876   
    3.16228x     25.1806   
    3.23594x     25.1734   
    3.31131x     25.1658   
    3.38844x     25.1579   
    3.46737x     25.1496   
    3.54813x     25.1410   
    3.63078x     25.1319   
    3.71535x     25.1225   
    3.80189x     25.1126   
    3.89045x     25.1023   
    3.98107x     25.0916   
    4.07380x     25.0803   
    4.16869x     25.0686   
    4.26580x     25.0563   
    4.36516x     25.0435   
    4.46684x     25.0302   
    4.57088x     25.0162   
    4.67735x     25.0017   
    4.78630x     24.9865   
    4.89779x     24.9707   
    5.01187x     24.9541   
    5.12861x     24.9369   
    5.24807x     24.9189   
    5.37032x     24.9002   
    5.49541x     24.8807   
    5.62341x     24.8603   
    5.75440x     24.8391   
    5.88844x     24.8170   
    6.02560x     24.7940   
    6.16595x     24.7701   
    6.30957x     24.7451   
    6.45654x     24.7192   
    6.60693x     24.6921   
    6.76083x     24.6640   
    6.91831x     24.6348   
    7.07946x     24.6044   
    7.24436x     24.5728   
    7.41310x     24.5400   
    7.58578x     24.5059   
    7.76247x     24.4704   
    7.94328x     24.4336   
    8.12831x     24.3954   
    8.31764x     24.3558   
    8.51138x     24.3147   
    8.70964x     24.2721   
    8.91251x     24.2280   
    9.12011x     24.1822   
    9.33254x     24.1348   
    9.54993x     24.0857   
    9.77237x     24.0349   
   10.00000x     23.9824   
   10.23293x     23.9280   
   10.47129x     23.8718   
   10.71519x     23.8138   
   10.96478x     23.7539   
   11.22018x     23.6920   
   11.48154x     23.6281   
   11.74898x     23.5623   
   12.02264x     23.4943   
   12.30269x     23.4244   
   12.58925x     23.3523   
   12.88250x     23.2781   
   13.18257x     23.2018   
   13.48963x     23.1233   
   13.80384x     23.0426   
   14.12538x     22.9597   
   14.45440x     22.8745   
   14.79108x     22.7871   
   15.13561x     22.6975   
   15.48817x     22.6056   
   15.84893x     22.5114   
   16.21810x     22.4149   
   16.59587x     22.3161   
   16.98244x     22.2151   
   17.37801x     22.1117   
   17.78279x     22.0061   
   18.19701x     21.8982   
   18.62087x     21.7880   
   19.05461x     21.6756   
   19.49845x     21.5609   
   19.95262x     21.4440   
   20.41738x     21.3249   
   20.89296x     21.2036   
   21.37962x     21.0801   
   21.87762x     20.9545   
   22.38721x     20.8267   
   22.90868x     20.6969   
   23.44229x     20.5650   
   23.98833x     20.4310   
   24.54709x     20.2950   
   25.11886x     20.1571   
   25.70396x     20.0172   
   26.30268x     19.8754   
   26.91535x     19.7318   
   27.54229x     19.5863   
   28.18383x     19.4391   
   28.84032x     19.2900   
   29.51209x     19.1393   
   30.19952x     18.9869   
   30.90295x     18.8329   
   31.62278x     18.6773   
   32.35937x     18.5201   
   33.11311x     18.3614   
   33.88442x     18.2013   
   34.67369x     18.0397   
   35.48134x     17.8767   
   36.30781x     17.7124   
   37.15352x     17.5468   
   38.01894x     17.3799   
   38.90451x     17.2118   
   39.81072x     17.0426   
   40.73803x     16.8721   
   41.68694x     16.7006   
   42.65795x     16.5279   
   43.65158x     16.3543   
   44.66836x     16.1796   
   45.70882x     16.0040   
   46.77351x     15.8275   
   47.86301x     15.6500   
   48.97788x     15.4717   
   50.11872x     15.2926   
   51.28614x     15.1126   
   52.48075x     14.9319   
   53.70318x     14.7505   
   54.95409x     14.5684   
   56.23413x     14.3856   
   57.54399x     14.2021   
   58.88437x     14.0180   
   60.25596x     13.8333   
   61.65950x     13.6481   
   63.09573x     13.4623   
   64.56542x     13.2760   
   66.06934x     13.0892   
   67.60830x     12.9019   
   69.18310x     12.7141   
   70.79458x     12.5260   
   72.44360x     12.3374   
   74.13102x     12.1485   
   75.85776x     11.9592   
   77.62471x     11.7695   
   79.43282x     11.5796   
   81.28305x     11.3893   
   83.17638x     11.1987   
   85.11380x     11.0079   
   87.09636x     10.8168   
   89.12509x     10.6255   
   91.20108x     10.4339   
   93.32543x     10.2422   
   95.49926x     10.0503   
   97.72372x      9.8582   
  100.00000x      9.6660   
  102.32930x      9.4736   
  104.71285x      9.2811   
  107.15193x      9.0885   
  109.64782x      8.8958   
  112.20185x      8.7030   
  114.81536x      8.5101   
  117.48976x      8.3172   
  120.22644x      8.1243   
  123.02688x      7.9313   
  125.89254x      7.7384   
  128.82496x      7.5454   
  131.82567x      7.3525   
  134.89629x      7.1596   
  138.03843x      6.9667   
  141.25375x      6.7740   
  144.54398x      6.5813   
  147.91084x      6.3886   
  151.35612x      6.1961   
  154.88166x      6.0038   
  158.48932x      5.8115   
  162.18101x      5.6194   
  165.95869x      5.4275   
  169.82437x      5.2358   
  173.78008x      5.0442   
  177.82794x      4.8529   
  181.97009x      4.6618   
  186.20871x      4.4710   
  190.54607x      4.2804   
  194.98446x      4.0901   
  199.52623x      3.9002   
  204.17379x      3.7105   
  208.92961x      3.5212   
  213.79621x      3.3323   
  218.77616x      3.1437   
  223.87211x      2.9556   
  229.08677x      2.7678   
  234.42288x      2.5806   
  239.88329x      2.3938   
  245.47089x      2.2074   
  251.18864x      2.0217   
  257.03958x      1.8364   
  263.02680x      1.6517   
  269.15348x      1.4676   
  275.42287x      1.2842   
  281.83829x      1.1014   
  288.40315x    919.2307m  
  295.12092x    737.8022m  
  301.99517x    557.1105m  
  309.02954x    377.1844m  
  316.22777x    198.0586m  
  323.59366x     19.7621m  
  331.13112x   -157.6710m  
  338.84416x   -334.2079m  
  346.73685x   -509.8136m  
  354.81339x   -684.4541m  
  363.07805x   -858.0923m  
  371.53523x     -1.0307   
  380.18940x     -1.2022   
  389.04514x     -1.3726   
  398.10717x     -1.5419   
  407.38028x     -1.7100   
  416.86938x     -1.8768   
  426.57952x     -2.0424   
  436.51583x     -2.2067   
  446.68359x     -2.3696   
  457.08819x     -2.5311   
  467.73514x     -2.6912   
  478.63009x     -2.8498   
  489.77882x     -3.0069   
  501.18723x     -3.1625   
  512.86138x     -3.3164   
  524.80746x     -3.4688   
  537.03180x     -3.6194   
  549.54087x     -3.7683   
  562.34133x     -3.9155   
  575.43994x     -4.0609   
  588.84366x     -4.2044   
  602.55959x     -4.3460   
  616.59500x     -4.4858   
  630.95734x     -4.6236   
  645.65423x     -4.7594   
  660.69345x     -4.8932   
  676.08298x     -5.0250   
  691.83097x     -5.1547   
  707.94578x     -5.2822   
  724.43596x     -5.4077   
  741.31024x     -5.5309   
  758.57758x     -5.6520   
  776.24712x     -5.7709   
  794.32823x     -5.8876   
  812.83052x     -6.0020   
  831.76377x     -6.1142   
  851.13804x     -6.2241   
  870.96359x     -6.3317   
  891.25094x     -6.4370   
  912.01084x     -6.5400   
  933.25430x     -6.6408   
  954.99259x     -6.7392   
  977.23722x     -6.8353   
    1.00000g     -6.9292   
y

          ***** job concluded
1****** HSPICE -- B-2008.09-SP1 32-BIT (Nov 24 2008) linux ******               
 ******  
 *3.1 without cp

  ******  job statistics summary tnom=  25.000 temp=  25.000 *****

  ******  HSPICE Threads Information  ******
  Command Line Threads Count:                      0
  Available CPU Count:                             8
  Actual Model Evaluation(Load) Threads Count:     1
  Actual Solver Threads Count:                     1


  ******  Circuit Statistics  ******
  # nodes       =      14  # elements   =       9
  # resistors   =       2  # capacitors =       0  # inductors   =       0
  # mutual_inds =       0  # vccs       =       0  # vcvs        =       0
  # cccs        =       0  # ccvs       =       0  # volt_srcs   =       4
  # curr_srcs   =       0  # diodes     =       0  # bjts        =       0
  # jfets       =       0  # mosfets    =       3  # U elements  =       0
  # T elements  =       0  # W elements =       0  # B elements  =       0
  # S elements  =       0  # P elements =       0  # va device   =       0


  ******  Runtime Statistics (seconds)  ******

  analysis           time    # points   tot. iter  conv.iter
  op point           0.00           1           7
  ac analysis        0.00         901         901
  readin             0.00
  errchk             0.01
  setup              0.00
  output             0.01


           total memory used          209  kbytes
           total cpu time            0.02 seconds
           total elapsed time        0.02 seconds
           job started at     13:05:25 05/06/2016
           job ended   at     13:05:26 05/06/2016


 Init: hspice initialization file: /usr/cad/synopsys/hspice/cur/hspice/hspice.ini
 lic: Release hspice token(s) 
