Using: /usr/bin/time -p /usr/cad/synopsys/hspice/cur/hspice/linux/hspice 1d.sp
 ****** HSPICE -- B-2008.09-SP1 32-BIT (Nov 24 2008) linux ******               
  Copyright (C) 2008 Synopsys, Inc. All Rights Reserved.                        
  Unpublished-rights reserved under US copyright laws.
  This program is protected by law and is subject to the 
  terms and conditions of the license agreement from Synopsys.
  Use of this program is your acceptance to be bound by the 
  license agreement. HSPICE is the trademark of Synopsys, Inc.
  Input File: 1d.sp                                                             
 lic:  
 lic: FLEXlm: v8.5b 
 lic: USER:   u102061112           HOSTNAME: ws36 
 lic: HOSTID: e41f1366b708         PID:      32689 
 lic: Using FLEXlm license file: 
 lic: 26585@lsnctu 
 lic: Checkout 1 hspice 
 lic: License/Maintenance for hspice will expire on 14-may-2016/2015.06 
 lic: FLOATING license(s) on SERVER lsnctu 
 lic:   
 Init: read install configuration file: /usr/cad/synopsys/hspice/cur/hspice/meta.cfg
 Init: hspice initialization file: /usr/cad/synopsys/hspice/cur/hspice/hspice.ini
 .option runlvl
 .option post=1 acct captab acout=0
 .param d=0

 m3 vp vb gnd gnd n_18 w=10u l=0.5u m=1
 m2 vout+ vin- vp gnd n_18 w=84u l=2.8u m=1
 m1 vout- vin+ vp gnd n_18 w=84u l=2.8u m=1

 r1 vdd vout- 100k 
 r0 vdd vout+ 100k 

 ******source******

 vdd vdd 0 dc=1.8
 vin+ vin+ 0 dc='1.8-d' ac 0.5 0
 vin- vin- 0 dc=d ac 0.5 180
 vb vb 0 dc=0.49

 ******analysis******
 .op
 .ac dec 100 1 1g sweep d 0.8435 0.9565 1m
 .probe vdb(vout+,vout-)
 .print vdb(vout+,vout-)

 .end
 

 
      
1****** HSPICE -- B-2008.09-SP1 32-BIT (Nov 24 2008) linux ******               
 ******  
 *3.1

  ******  operating point information tnom=  25.000 temp=  25.000 *****
 ***** operating point status is all       simulation time is     0.     
    node    =voltage      node    =voltage      node    =voltage

 +0:vb      = 490.0000m 0:vdd     =   1.8000  0:vin+    =   1.8000 
 +0:vin-    =   0.      0:vout+   =   1.8000  0:vout-   = 114.6760m
 +0:vp      = 113.0864m


 maximum nodal capacitance=   2.280E-12         on node     0:vout-           

    nodal  capacitance table 

    node    =    cap      node    =    cap      node    =    cap

 +0:vb      =  33.2970f 0:vdd     =   0.      0:vin+    =   1.9434p
 +0:vin-    = 511.1943f 0:vout+   =  96.5138f 0:vout-   =   2.2804p
 +0:vp      =   2.1198p

 

 ****  voltage sources

 subckt                                              
 element  0:vdd      0:vin+     0:vin-     0:vb      
  volts      1.8000     1.8000     0.       490.0000m
  current  -16.8532u    0.         0.         0.     
  power     30.3358u    0.         0.         0.     

     total voltage source power dissipation=   30.3358u       watts



 **** resistors

 subckt                        
 element  0:r1       0:r0      
  r value  100.0000k  100.0000k
  v drop     1.6853   516.6349n
  current   16.8532u    5.1663p
  power     28.4032u    2.6691a



 **** mosfets


 subckt                                   
 element  0:m3       0:m2       0:m1      
 model    0:n_18.1   0:n_18.1   0:n_18.1  
 region     Saturati     Cutoff     Linear
  id        16.8532u    1.6497p   16.8532u
  ibs     -2.727e-21 -678.1203a -678.1228a
  ibd      -87.9785a  -10.7937f -687.6500a
  vgs      490.0000m -113.0864m    1.6869 
  vds      113.0864m    1.6869     1.5896m
  vbs        0.      -113.0864m -113.0864m
  vth      448.0679m  354.8562m  362.5189m
  vdsat     90.0651m   37.0562m    1.1240 
  vod       41.9321m -467.9426m    1.3244 
  beta       6.4801m    9.0330m    8.0924m
  gam eff  507.4460m  510.5209m  510.5209m
  gm       290.8952u   61.7697p    9.1115u
  gds       28.9227u  377.5916f   10.5994m
  gmb       57.3741u   14.2110p    3.0014u
  cdtot     15.9195f   96.5138f    2.2804p
  cgtot     33.2970f  511.1943f    1.9434p
  cstot     39.4218f  126.4204f    1.9774p
  cbtot     30.7849f  603.6448f  610.6386f
  cgs       25.8343f   32.6320f  959.3459f
  cgd        3.9551f   32.6172f  940.5649f



1****** HSPICE -- B-2008.09-SP1 32-BIT (Nov 24 2008) linux ******               
 ******  
 *3.1

  ******  ac analysis tnom=  25.000 temp=  25.000 *****
 ***** operating point status is all       simulation time is     0.     

   *** parameter d                =    8.435E-01 ***

    node    =voltage      node    =voltage      node    =voltage

 +0:vb      = 490.0000m 0:vdd     =   1.8000  0:vin+    = 956.5000m
 +0:vin-    = 843.5000m 0:vout+   =   1.1531  0:vout-   = 458.3930m
 +0:vp      = 440.6842m


 maximum nodal capacitance=   2.300E-12         on node     0:vp              

    nodal  capacitance table 

    node    =    cap      node    =    cap      node    =    cap

 +0:vb      =  33.3430f 0:vdd     =   0.      0:vin+    =   1.8606p
 +0:vin-    = 784.0322f 0:vout+   = 103.6803f 0:vout-   =   1.4061p
 +0:vp      =   2.2996p

 

 ****  voltage sources

 subckt                                              
 element  0:vdd      0:vin+     0:vin-     0:vb      
  volts      1.8000   956.5000m  843.5000m  490.0000m
  current  -19.8853u    0.         0.         0.     
  power     35.7935u    0.         0.         0.     

     total voltage source power dissipation=   35.7935u       watts



 **** resistors

 subckt                        
 element  0:r1       0:r0      
  r value  100.0000k  100.0000k
  v drop     1.3416   646.9194m
  current   13.4161u    6.4692u
  power     17.9991u    4.1850u



 **** mosfets


 subckt                                   
 element  0:m3       0:m2       0:m1      
 model    0:n_18.1   0:n_18.1   0:n_18.1  
 region     Saturati     Cutoff     Linear
  id        19.8853u    6.4692u   13.4161u
  ibs     -3.218e-21   -2.6426f   -2.6426f
  ibd     -342.8491a   -6.9144f   -2.7487f
  vgs      490.0000m  402.8158m  515.8158m
  vds      440.6842m  712.3964m   17.7088m
  vbs        0.      -440.6842m -440.6842m
  vth      443.8288m  419.4774m  423.5037m
  vdsat     92.4084m   56.4460m  112.4455m
  vod       46.1712m  -16.6616m   92.3120m
  beta       6.4796m    9.1412m    9.1652m
  gam eff  507.4460m  518.5567m  518.5567m
  gm       349.5531u  150.9317u  133.9529u
  gds        5.9188u    1.2435u  689.0978u
  gmb       68.2670u   25.2201u   22.7135u
  cdtot     13.9953f  103.6803f    1.4061p
  cgtot     33.3430f  784.0322f    1.8606p
  cstot     40.2097f  624.1186f    1.6615p
  cbtot     29.5515f  482.9134f  533.2580f
  cgs       26.1595f  500.3451f    1.2045p
  cgd        3.6539f   30.3377f  592.3700f



 ******  
 *3.1

  ******  ac analysis tnom=  25.000 temp=  25.000 *****
x

        freq    volt db    
                   vout+   
                   vout-   
    1.00000       2.4443   
    1.02329       2.4443   
    1.04713       2.4443   
    1.07152       2.4443   
    1.09648       2.4443   
    1.12202       2.4443   
    1.14815       2.4443   
    1.17490       2.4443   
    1.20226       2.4443   
    1.23027       2.4443   
    1.25893       2.4443   
    1.28825       2.4443   
    1.31826       2.4443   
    1.34896       2.4443   
    1.38038       2.4443   
    1.41254       2.4443   
    1.44544       2.4443   
    1.47911       2.4443   
    1.51356       2.4443   
    1.54882       2.4443   
    1.58489       2.4443   
    1.62181       2.4443   
    1.65959       2.4443   
    1.69824       2.4443   
    1.73780       2.4443   
    1.77828       2.4443   
    1.81970       2.4443   
    1.86209       2.4443   
    1.90546       2.4443   
    1.94984       2.4443   
    1.99526       2.4443   
    2.04174       2.4443   
    2.08930       2.4443   
    2.13796       2.4443   
    2.18776       2.4443   
    2.23872       2.4443   
    2.29087       2.4443   
    2.34423       2.4443   
    2.39883       2.4443   
    2.45471       2.4443   
    2.51189       2.4443   
    2.57040       2.4443   
    2.63027       2.4443   
    2.69153       2.4443   
    2.75423       2.4443   
    2.81838       2.4443   
    2.88403       2.4443   
    2.95121       2.4443   
    3.01995       2.4443   
    3.09030       2.4443   
    3.16228       2.4443   
    3.23594       2.4443   
    3.31131       2.4443   
    3.38844       2.4443   
    3.46737       2.4443   
    3.54813       2.4443   
    3.63078       2.4443   
    3.71535       2.4443   
    3.80189       2.4443   
    3.89045       2.4443   
    3.98107       2.4443   
    4.07380       2.4443   
    4.16869       2.4443   
    4.26580       2.4443   
    4.36516       2.4443   
    4.46684       2.4443   
    4.57088       2.4443   
    4.67735       2.4443   
    4.78630       2.4443   
    4.89779       2.4443   
    5.01187       2.4443   
    5.12861       2.4443   
    5.24807       2.4443   
    5.37032       2.4443   
    5.49541       2.4443   
    5.62341       2.4443   
    5.75440       2.4443   
    5.88844       2.4443   
    6.02560       2.4443   
    6.16595       2.4443   
    6.30957       2.4443   
    6.45654       2.4443   
    6.60693       2.4443   
    6.76083       2.4443   
    6.91831       2.4443   
    7.07946       2.4443   
    7.24436       2.4443   
    7.41310       2.4443   
    7.58578       2.4443   
    7.76247       2.4443   
    7.94328       2.4443   
    8.12831       2.4443   
    8.31764       2.4443   
    8.51138       2.4443   
    8.70964       2.4443   
    8.91251       2.4443   
    9.12011       2.4443   
    9.33254       2.4443   
    9.54993       2.4443   
    9.77237       2.4443   
   10.00000       2.4443   
   10.23293       2.4443   
   10.47129       2.4443   
   10.71519       2.4443   
   10.96478       2.4443   
   11.22018       2.4443   
   11.48154       2.4443   
   11.74898       2.4443   
   12.02264       2.4443   
   12.30269       2.4443   
   12.58925       2.4443   
   12.88250       2.4443   
   13.18257       2.4443   
   13.48963       2.4443   
   13.80384       2.4443   
   14.12538       2.4443   
   14.45440       2.4443   
   14.79108       2.4443   
   15.13561       2.4443   
   15.48817       2.4443   
   15.84893       2.4443   
   16.21810       2.4443   
   16.59587       2.4443   
   16.98244       2.4443   
   17.37801       2.4443   
   17.78279       2.4443   
   18.19701       2.4443   
   18.62087       2.4443   
   19.05461       2.4443   
   19.49845       2.4443   
   19.95262       2.4443   
   20.41738       2.4443   
   20.89296       2.4443   
   21.37962       2.4443   
   21.87762       2.4443   
   22.38721       2.4443   
   22.90868       2.4443   
   23.44229       2.4443   
   23.98833       2.4443   
   24.54709       2.4443   
   25.11886       2.4443   
   25.70396       2.4443   
   26.30268       2.4443   
   26.91535       2.4443   
   27.54229       2.4443   
   28.18383       2.4443   
   28.84032       2.4443   
   29.51209       2.4443   
   30.19952       2.4443   
   30.90295       2.4443   
   31.62278       2.4443   
   32.35937       2.4443   
   33.11311       2.4443   
   33.88442       2.4443   
   34.67369       2.4443   
   35.48134       2.4443   
   36.30781       2.4443   
   37.15352       2.4443   
   38.01894       2.4443   
   38.90451       2.4443   
   39.81072       2.4443   
   40.73803       2.4443   
   41.68694       2.4443   
   42.65795       2.4443   
   43.65158       2.4443   
   44.66836       2.4443   
   45.70882       2.4443   
   46.77351       2.4443   
   47.86301       2.4443   
   48.97788       2.4443   
   50.11872       2.4443   
   51.28614       2.4443   
   52.48075       2.4443   
   53.70318       2.4443   
   54.95409       2.4443   
   56.23413       2.4443   
   57.54399       2.4443   
   58.88437       2.4443   
   60.25596       2.4443   
   61.65950       2.4443   
   63.09573       2.4443   
   64.56542       2.4443   
   66.06934       2.4443   
   67.60830       2.4443   
   69.18310       2.4443   
   70.79458       2.4443   
   72.44360       2.4443   
   74.13102       2.4443   
   75.85776       2.4443   
   77.62471       2.4443   
   79.43282       2.4443   
   81.28305       2.4443   
   83.17638       2.4443   
   85.11380       2.4443   
   87.09636       2.4443   
   89.12509       2.4443   
   91.20108       2.4443   
   93.32543       2.4443   
   95.49926       2.4443   
   97.72372       2.4443   
  100.00000       2.4443   
  102.32930       2.4443   
  104.71285       2.4443   
  107.15193       2.4443   
  109.64782       2.4443   
  112.20185       2.4443   
  114.81536       2.4443   
  117.48976       2.4443   
  120.22644       2.4443   
  123.02688       2.4443   
  125.89254       2.4443   
  128.82496       2.4443   
  131.82567       2.4443   
  134.89629       2.4443   
  138.03843       2.4443   
  141.25375       2.4443   
  144.54398       2.4443   
  147.91084       2.4443   
  151.35612       2.4443   
  154.88166       2.4443   
  158.48932       2.4443   
  162.18101       2.4443   
  165.95869       2.4443   
  169.82437       2.4443   
  173.78008       2.4443   
  177.82794       2.4443   
  181.97009       2.4443   
  186.20871       2.4443   
  190.54607       2.4443   
  194.98446       2.4443   
  199.52623       2.4443   
  204.17379       2.4443   
  208.92961       2.4443   
  213.79621       2.4443   
  218.77616       2.4443   
  223.87211       2.4443   
  229.08677       2.4443   
  234.42288       2.4443   
  239.88329       2.4443   
  245.47089       2.4443   
  251.18864       2.4443   
  257.03958       2.4443   
  263.02680       2.4443   
  269.15348       2.4443   
  275.42287       2.4443   
  281.83829       2.4443   
  288.40315       2.4443   
  295.12092       2.4443   
  301.99517       2.4443   
  309.02954       2.4443   
  316.22777       2.4443   
  323.59366       2.4443   
  331.13112       2.4443   
  338.84416       2.4443   
  346.73685       2.4443   
  354.81339       2.4443   
  363.07805       2.4443   
  371.53523       2.4443   
  380.18940       2.4443   
  389.04514       2.4443   
  398.10717       2.4443   
  407.38028       2.4443   
  416.86938       2.4443   
  426.57952       2.4443   
  436.51583       2.4443   
  446.68359       2.4443   
  457.08819       2.4443   
  467.73514       2.4443   
  478.63009       2.4443   
  489.77882       2.4443   
  501.18723       2.4443   
  512.86138       2.4443   
  524.80746       2.4443   
  537.03180       2.4443   
  549.54087       2.4443   
  562.34133       2.4443   
  575.43994       2.4443   
  588.84366       2.4443   
  602.55959       2.4443   
  616.59500       2.4443   
  630.95734       2.4443   
  645.65423       2.4443   
  660.69345       2.4443   
  676.08298       2.4443   
  691.83097       2.4443   
  707.94578       2.4443   
  724.43596       2.4443   
  741.31024       2.4443   
  758.57758       2.4443   
  776.24712       2.4443   
  794.32823       2.4443   
  812.83052       2.4443   
  831.76377       2.4443   
  851.13804       2.4443   
  870.96359       2.4443   
  891.25094       2.4443   
  912.01084       2.4443   
  933.25430       2.4443   
  954.99259       2.4443   
  977.23722       2.4443   
    1.00000k      2.4443   
    1.02329k      2.4443   
    1.04713k      2.4443   
    1.07152k      2.4443   
    1.09648k      2.4443   
    1.12202k      2.4443   
    1.14815k      2.4443   
    1.17490k      2.4443   
    1.20226k      2.4443   
    1.23027k      2.4443   
    1.25893k      2.4443   
    1.28825k      2.4443   
    1.31826k      2.4443   
    1.34896k      2.4443   
    1.38038k      2.4443   
    1.41254k      2.4443   
    1.44544k      2.4443   
    1.47911k      2.4443   
    1.51356k      2.4443   
    1.54882k      2.4443   
    1.58489k      2.4443   
    1.62181k      2.4443   
    1.65959k      2.4443   
    1.69824k      2.4443   
    1.73780k      2.4443   
    1.77828k      2.4443   
    1.81970k      2.4443   
    1.86209k      2.4443   
    1.90546k      2.4443   
    1.94984k      2.4443   
    1.99526k      2.4443   
    2.04174k      2.4443   
    2.08930k      2.4443   
    2.13796k      2.4443   
    2.18776k      2.4443   
    2.23872k      2.4443   
    2.29087k      2.4443   
    2.34423k      2.4443   
    2.39883k      2.4443   
    2.45471k      2.4443   
    2.51189k      2.4443   
    2.57040k      2.4443   
    2.63027k      2.4443   
    2.69153k      2.4443   
    2.75423k      2.4443   
    2.81838k      2.4443   
    2.88403k      2.4443   
    2.95121k      2.4443   
    3.01995k      2.4443   
    3.09030k      2.4443   
    3.16228k      2.4443   
    3.23594k      2.4443   
    3.31131k      2.4443   
    3.38844k      2.4443   
    3.46737k      2.4443   
    3.54813k      2.4443   
    3.63078k      2.4443   
    3.71535k      2.4443   
    3.80189k      2.4443   
    3.89045k      2.4443   
    3.98107k      2.4443   
    4.07380k      2.4443   
    4.16869k      2.4443   
    4.26580k      2.4443   
    4.36516k      2.4443   
    4.46684k      2.4443   
    4.57088k      2.4443   
    4.67735k      2.4443   
    4.78630k      2.4443   
    4.89779k      2.4443   
    5.01187k      2.4443   
    5.12861k      2.4443   
    5.24807k      2.4444   
    5.37032k      2.4444   
    5.49541k      2.4444   
    5.62341k      2.4444   
    5.75440k      2.4444   
    5.88844k      2.4444   
    6.02560k      2.4444   
    6.16595k      2.4444   
    6.30957k      2.4444   
    6.45654k      2.4444   
    6.60693k      2.4444   
    6.76083k      2.4444   
    6.91831k      2.4444   
    7.07946k      2.4444   
    7.24436k      2.4444   
    7.41310k      2.4444   
    7.58578k      2.4445   
    7.76247k      2.4445   
    7.94328k      2.4445   
    8.12831k      2.4445   
    8.31764k      2.4445   
    8.51138k      2.4445   
    8.70964k      2.4445   
    8.91251k      2.4445   
    9.12011k      2.4445   
    9.33254k      2.4446   
    9.54993k      2.4446   
    9.77237k      2.4446   
   10.00000k      2.4446   
   10.23293k      2.4446   
   10.47129k      2.4446   
   10.71519k      2.4446   
   10.96478k      2.4447   
   11.22018k      2.4447   
   11.48154k      2.4447   
   11.74898k      2.4447   
   12.02264k      2.4447   
   12.30269k      2.4448   
   12.58925k      2.4448   
   12.88250k      2.4448   
   13.18257k      2.4448   
   13.48963k      2.4449   
   13.80384k      2.4449   
   14.12538k      2.4449   
   14.45440k      2.4450   
   14.79108k      2.4450   
   15.13561k      2.4450   
   15.48817k      2.4451   
   15.84893k      2.4451   
   16.21810k      2.4451   
   16.59587k      2.4452   
   16.98244k      2.4452   
   17.37801k      2.4453   
   17.78279k      2.4453   
   18.19701k      2.4454   
   18.62087k      2.4454   
   19.05461k      2.4455   
   19.49845k      2.4455   
   19.95262k      2.4456   
   20.41738k      2.4457   
   20.89296k      2.4457   
   21.37962k      2.4458   
   21.87762k      2.4459   
   22.38721k      2.4459   
   22.90868k      2.4460   
   23.44229k      2.4461   
   23.98833k      2.4462   
   24.54709k      2.4463   
   25.11886k      2.4464   
   25.70396k      2.4465   
   26.30268k      2.4466   
   26.91535k      2.4467   
   27.54229k      2.4468   
   28.18383k      2.4469   
   28.84032k      2.4471   
   29.51209k      2.4472   
   30.19952k      2.4473   
   30.90295k      2.4475   
   31.62278k      2.4476   
   32.35937k      2.4478   
   33.11311k      2.4479   
   33.88442k      2.4481   
   34.67369k      2.4483   
   35.48134k      2.4485   
   36.30781k      2.4487   
   37.15352k      2.4489   
   38.01894k      2.4491   
   38.90451k      2.4493   
   39.81072k      2.4496   
   40.73803k      2.4498   
   41.68694k      2.4501   
   42.65795k      2.4504   
   43.65158k      2.4507   
   44.66836k      2.4510   
   45.70882k      2.4513   
   46.77351k      2.4516   
   47.86301k      2.4520   
   48.97788k      2.4523   
   50.11872k      2.4527   
   51.28614k      2.4531   
   52.48075k      2.4535   
   53.70318k      2.4540   
   54.95409k      2.4544   
   56.23413k      2.4549   
   57.54399k      2.4554   
   58.88437k      2.4559   
   60.25596k      2.4565   
   61.65950k      2.4570   
   63.09573k      2.4576   
   64.56542k      2.4583   
   66.06934k      2.4589   
   67.60830k      2.4596   
   69.18310k      2.4603   
   70.79458k      2.4611   
   72.44360k      2.4619   
   74.13102k      2.4627   
   75.85776k      2.4636   
   77.62471k      2.4645   
   79.43282k      2.4654   
   81.28305k      2.4664   
   83.17638k      2.4675   
   85.11380k      2.4686   
   87.09636k      2.4697   
   89.12509k      2.4709   
   91.20108k      2.4722   
   93.32543k      2.4735   
   95.49926k      2.4748   
   97.72372k      2.4763   
  100.00000k      2.4778   
  102.32930k      2.4793   
  104.71285k      2.4810   
  107.15193k      2.4827   
  109.64782k      2.4845   
  112.20185k      2.4864   
  114.81536k      2.4884   
  117.48976k      2.4904   
  120.22644k      2.4926   
  123.02688k      2.4949   
  125.89254k      2.4972   
  128.82496k      2.4997   
  131.82567k      2.5023   
  134.89629k      2.5050   
  138.03843k      2.5079   
  141.25375k      2.5109   
  144.54398k      2.5140   
  147.91084k      2.5172   
  151.35612k      2.5206   
  154.88166k      2.5242   
  158.48932k      2.5279   
  162.18101k      2.5318   
  165.95869k      2.5359   
  169.82437k      2.5402   
  173.78008k      2.5446   
  177.82794k      2.5493   
  181.97009k      2.5542   
  186.20871k      2.5593   
  190.54607k      2.5647   
  194.98446k      2.5703   
  199.52623k      2.5761   
  204.17379k      2.5822   
  208.92961k      2.5886   
  213.79621k      2.5953   
  218.77616k      2.6023   
  223.87211k      2.6096   
  229.08677k      2.6172   
  234.42288k      2.6252   
  239.88329k      2.6335   
  245.47089k      2.6422   
  251.18864k      2.6513   
  257.03958k      2.6608   
  263.02680k      2.6707   
  269.15348k      2.6811   
  275.42287k      2.6920   
  281.83829k      2.7033   
  288.40315k      2.7151   
  295.12092k      2.7274   
  301.99517k      2.7403   
  309.02954k      2.7537   
  316.22777k      2.7678   
  323.59366k      2.7824   
  331.13112k      2.7977   
  338.84416k      2.8136   
  346.73685k      2.8302   
  354.81339k      2.8476   
  363.07805k      2.8656   
  371.53523k      2.8845   
  380.18940k      2.9041   
  389.04514k      2.9246   
  398.10717k      2.9459   
  407.38028k      2.9681   
  416.86938k      2.9912   
  426.57952k      3.0153   
  436.51583k      3.0403   
  446.68359k      3.0664   
  457.08819k      3.0935   
  467.73514k      3.1217   
  478.63009k      3.1511   
  489.77882k      3.1816   
  501.18723k      3.2133   
  512.86138k      3.2462   
  524.80746k      3.2804   
  537.03180k      3.3159   
  549.54087k      3.3528   
  562.34133k      3.3910   
  575.43994k      3.4307   
  588.84366k      3.4718   
  602.55959k      3.5144   
  616.59500k      3.5586   
  630.95734k      3.6043   
  645.65423k      3.6517   
  660.69345k      3.7007   
  676.08298k      3.7514   
  691.83097k      3.8038   
  707.94578k      3.8580   
  724.43596k      3.9139   
  741.31024k      3.9717   
  758.57758k      4.0314   
  776.24712k      4.0929   
  794.32823k      4.1563   
  812.83052k      4.2217   
  831.76377k      4.2891   
  851.13804k      4.3584   
  870.96359k      4.4298   
  891.25094k      4.5031   
  912.01084k      4.5786   
  933.25430k      4.6561   
  954.99259k      4.7357   
  977.23722k      4.8174   
    1.00000x      4.9012   
    1.02329x      4.9871   
    1.04713x      5.0751   
    1.07152x      5.1652   
    1.09648x      5.2574   
    1.12202x      5.3517   
    1.14815x      5.4481   
    1.17490x      5.5466   
    1.20226x      5.6472   
    1.23027x      5.7499   
    1.25893x      5.8545   
    1.28825x      5.9612   
    1.31826x      6.0699   
    1.34896x      6.1805   
    1.38038x      6.2931   
    1.41254x      6.4076   
    1.44544x      6.5239   
    1.47911x      6.6421   
    1.51356x      6.7621   
    1.54882x      6.8838   
    1.58489x      7.0072   
    1.62181x      7.1322   
    1.65959x      7.2588   
    1.69824x      7.3870   
    1.73780x      7.5167   
    1.77828x      7.6479   
    1.81970x      7.7804   
    1.86209x      7.9142   
    1.90546x      8.0494   
    1.94984x      8.1857   
    1.99526x      8.3231   
    2.04174x      8.4617   
    2.08930x      8.6012   
    2.13796x      8.7417   
    2.18776x      8.8830   
    2.23872x      9.0252   
    2.29087x      9.1681   
    2.34423x      9.3116   
    2.39883x      9.4558   
    2.45471x      9.6004   
    2.51189x      9.7455   
    2.57040x      9.8910   
    2.63027x     10.0368   
    2.69153x     10.1827   
    2.75423x     10.3289   
    2.81838x     10.4751   
    2.88403x     10.6212   
    2.95121x     10.7673   
    3.01995x     10.9133   
    3.09030x     11.0589   
    3.16228x     11.2043   
    3.23594x     11.3492   
    3.31131x     11.4937   
    3.38844x     11.6376   
    3.46737x     11.7808   
    3.54813x     11.9233   
    3.63078x     12.0650   
    3.71535x     12.2059   
    3.80189x     12.3457   
    3.89045x     12.4845   
    3.98107x     12.6222   
    4.07380x     12.7586   
    4.16869x     12.8938   
    4.26580x     13.0276   
    4.36516x     13.1599   
    4.46684x     13.2906   
    4.57088x     13.4198   
    4.67735x     13.5473   
    4.78630x     13.6729   
    4.89779x     13.7967   
    5.01187x     13.9186   
    5.12861x     14.0384   
    5.24807x     14.1562   
    5.37032x     14.2717   
    5.49541x     14.3851   
    5.62341x     14.4961   
    5.75440x     14.6047   
    5.88844x     14.7108   
    6.02560x     14.8143   
    6.16595x     14.9153   
    6.30957x     15.0136   
    6.45654x     15.1091   
    6.60693x     15.2018   
    6.76083x     15.2916   
    6.91831x     15.3785   
    7.07946x     15.4624   
    7.24436x     15.5432   
    7.41310x     15.6208   
    7.58578x     15.6954   
    7.76247x     15.7666   
    7.94328x     15.8346   
    8.12831x     15.8993   
    8.31764x     15.9606   
    8.51138x     16.0185   
    8.70964x     16.0729   
    8.91251x     16.1238   
    9.12011x     16.1712   
    9.33254x     16.2150   
    9.54993x     16.2553   
    9.77237x     16.2918   
   10.00000x     16.3248   
   10.23293x     16.3540   
   10.47129x     16.3796   
   10.71519x     16.4014   
   10.96478x     16.4194   
   11.22018x     16.4337   
   11.48154x     16.4443   
   11.74898x     16.4510   
   12.02264x     16.4540   
   12.30269x     16.4531   
   12.58925x     16.4485   
   12.88250x     16.4401   
   13.18257x     16.4278   
   13.48963x     16.4118   
   13.80384x     16.3920   
   14.12538x     16.3683   
   14.45440x     16.3410   
   14.79108x     16.3098   
   15.13561x     16.2749   
   15.48817x     16.2363   
   15.84893x     16.1940   
   16.21810x     16.1480   
   16.59587x     16.0983   
   16.98244x     16.0450   
   17.37801x     15.9881   
   17.78279x     15.9276   
   18.19701x     15.8636   
   18.62087x     15.7961   
   19.05461x     15.7251   
   19.49845x     15.6507   
   19.95262x     15.5728   
   20.41738x     15.4917   
   20.89296x     15.4072   
   21.37962x     15.3195   
   21.87762x     15.2286   
   22.38721x     15.1345   
   22.90868x     15.0373   
   23.44229x     14.9371   
   23.98833x     14.8339   
   24.54709x     14.7277   
   25.11886x     14.6187   
   25.70396x     14.5068   
   26.30268x     14.3922   
   26.91535x     14.2748   
   27.54229x     14.1548   
   28.18383x     14.0323   
   28.84032x     13.9072   
   29.51209x     13.7796   
   30.19952x     13.6497   
   30.90295x     13.5174   
   31.62278x     13.3828   
   32.35937x     13.2461   
   33.11311x     13.1072   
   33.88442x     12.9662   
   34.67369x     12.8231   
   35.48134x     12.6782   
   36.30781x     12.5313   
   37.15352x     12.3826   
   38.01894x     12.2321   
   38.90451x     12.0799   
   39.81072x     11.9261   
   40.73803x     11.7706   
   41.68694x     11.6137   
   42.65795x     11.4552   
   43.65158x     11.2954   
   44.66836x     11.1341   
   45.70882x     10.9716   
   46.77351x     10.8078   
   47.86301x     10.6428   
   48.97788x     10.4767   
   50.11872x     10.3095   
   51.28614x     10.1412   
   52.48075x      9.9720   
   53.70318x      9.8018   
   54.95409x      9.6308   
   56.23413x      9.4589   
   57.54399x      9.2862   
   58.88437x      9.1127   
   60.25596x      8.9386   
   61.65950x      8.7638   
   63.09573x      8.5884   
   64.56542x      8.4125   
   66.06934x      8.2361   
   67.60830x      8.0591   
   69.18310x      7.8818   
   70.79458x      7.7041   
   72.44360x      7.5260   
   74.13102x      7.3477   
   75.85776x      7.1691   
   77.62471x      6.9902   
   79.43282x      6.8113   
   81.28305x      6.6322   
   83.17638x      6.4530   
   85.11380x      6.2737   
   87.09636x      6.0945   
   89.12509x      5.9153   
   91.20108x      5.7362   
   93.32543x      5.5573   
   95.49926x      5.3785   
   97.72372x      5.1999   
  100.00000x      5.0215   
  102.32930x      4.8435   
  104.71285x      4.6658   
  107.15193x      4.4885   
  109.64782x      4.3116   
  112.20185x      4.1352   
  114.81536x      3.9593   
  117.48976x      3.7840   
  120.22644x      3.6092   
  123.02688x      3.4351   
  125.89254x      3.2617   
  128.82496x      3.0891   
  131.82567x      2.9172   
  134.89629x      2.7462   
  138.03843x      2.5760   
  141.25375x      2.4068   
  144.54398x      2.2386   
  147.91084x      2.0713   
  151.35612x      1.9051   
  154.88166x      1.7401   
  158.48932x      1.5762   
  162.18101x      1.4135   
  165.95869x      1.2521   
  169.82437x      1.0920   
  173.78008x    933.2173m  
  177.82794x    775.8543m  
  181.97009x    619.9394m  
  186.20871x    465.5189m  
  190.54607x    312.6392m  
  194.98446x    161.3464m  
  199.52623x     11.6861m  
  204.17379x   -136.2977m  
  208.92961x   -282.5601m  
  213.79621x   -427.0597m  
  218.77616x   -569.7533m  
  223.87211x   -710.6009m  
  229.08677x   -849.5608m  
  234.42288x   -986.5960m  
  239.88329x     -1.1217   
  245.47089x     -1.2547   
  251.18864x     -1.3858   
  257.03958x     -1.5148   
  263.02680x     -1.6417   
  269.15348x     -1.7664   
  275.42287x     -1.8890   
  281.83829x     -2.0095   
  288.40315x     -2.1277   
  295.12092x     -2.2437   
  301.99517x     -2.3575   
  309.02954x     -2.4690   
  316.22777x     -2.5783   
  323.59366x     -2.6853   
  331.13112x     -2.7900   
  338.84416x     -2.8924   
  346.73685x     -2.9925   
  354.81339x     -3.0903   
  363.07805x     -3.1858   
  371.53523x     -3.2791   
  380.18940x     -3.3700   
  389.04514x     -3.4587   
  398.10717x     -3.5451   
  407.38028x     -3.6293   
  416.86938x     -3.7112   
  426.57952x     -3.7909   
  436.51583x     -3.8684   
  446.68359x     -3.9438   
  457.08819x     -4.0170   
  467.73514x     -4.0881   
  478.63009x     -4.1571   
  489.77882x     -4.2240   
  501.18723x     -4.2889   
  512.86138x     -4.3517   
  524.80746x     -4.4127   
  537.03180x     -4.4716   
  549.54087x     -4.5287   
  562.34133x     -4.5840   
  575.43994x     -4.6374   
  588.84366x     -4.6890   
  602.55959x     -4.7389   
  616.59500x     -4.7870   
  630.95734x     -4.8335   
  645.65423x     -4.8784   
  660.69345x     -4.9217   
  676.08298x     -4.9635   
  691.83097x     -5.0038   
  707.94578x     -5.0426   
  724.43596x     -5.0799   
  741.31024x     -5.1160   
  758.57758x     -5.1506   
  776.24712x     -5.1840   
  794.32823x     -5.2161   
  812.83052x     -5.2470   
  831.76377x     -5.2767   
  851.13804x     -5.3052   
  870.96359x     -5.3326   
  891.25094x     -5.3590   
  912.01084x     -5.3844   
  933.25430x     -5.4087   
  954.99259x     -5.4320   
  977.23722x     -5.4545   
    1.00000g     -5.4760   
y

          ***** job concluded
1****** HSPICE -- B-2008.09-SP1 32-BIT (Nov 24 2008) linux ******               
 ******  
 *3.1

  ******  ac analysis tnom=  25.000 temp=  25.000 *****
 ***** operating point status is all       simulation time is     0.     

   *** parameter d                =    8.445E-01 ***

    node    =voltage      node    =voltage      node    =voltage

 +0:vb      = 490.0000m 0:vdd     =   1.8000  0:vin+    = 955.5000m
 +0:vin-    = 844.5000m 0:vout+   =   1.1515  0:vout-   = 459.5014m
 +0:vp      = 441.4367m


 maximum nodal capacitance=   2.294E-12         on node     0:vp              

    nodal  capacitance table 

    node    =    cap      node    =    cap      node    =    cap

 +0:vb      =  33.3440f 0:vdd     =   0.      0:vin+    =   1.8551p
 +0:vin-    = 785.0218f 0:vout+   = 103.7016f 0:vout-   =   1.3857p
 +0:vp      =   2.2940p

 

 ****  voltage sources

 subckt                                              
 element  0:vdd      0:vin+     0:vin-     0:vb      
  volts      1.8000   955.5000m  844.5000m  490.0000m
  current  -19.8897u    0.         0.         0.     
  power     35.8015u    0.         0.         0.     

     total voltage source power dissipation=   35.8015u       watts



 **** resistors

 subckt                        
 element  0:r1       0:r0      
  r value  100.0000k  100.0000k
  v drop     1.3405   648.4731m
  current   13.4050u    6.4847u
  power     17.9694u    4.2052u



 **** mosfets


 subckt                                   
 element  0:m3       0:m2       0:m1      
 model    0:n_18.1   0:n_18.1   0:n_18.1  
 region     Saturati     Cutoff     Linear
  id        19.8897u    6.4847u   13.4050u
  ibs     -3.219e-21   -2.6471f   -2.6471f
  ibd     -343.4345a   -6.9051f   -2.7554f
  vgs      490.0000m  403.0633m  514.0633m
  vds      441.4367m  710.0903m   18.0648m
  vbs        0.      -441.4367m -441.4367m
  vth      443.8191m  419.6184m  423.6313m
  vdsat     92.4138m   56.4832m  111.2048m
  vod       46.1809m  -16.5551m   90.4320m
  beta       6.4796m    9.1414m    9.1650m
  gam eff  507.4460m  518.5739m  518.5739m
  gm       349.6190u  151.2522u  135.6904u
  gds        5.9158u    1.2467u  672.6525u
  gmb       68.2786u   25.2666u   23.0031u
  cdtot     13.9930f  103.7016f    1.3857p
  cgtot     33.3440f  785.0218f    1.8551p
  cstot     40.2111f  625.4314f    1.6545p
  cbtot     29.5492f  482.8365f  532.8053f
  cgs       26.1606f  501.5962f    1.2069p
  cgd        3.6539f   30.3306f  583.4820f



 ******  
 *3.1

  ******  ac analysis tnom=  25.000 temp=  25.000 *****
x

        freq    volt db    
                   vout+   
                   vout-   
    1.00000       2.5242   
    1.02329       2.5242   
    1.04713       2.5242   
    1.07152       2.5242   
    1.09648       2.5242   
    1.12202       2.5242   
    1.14815       2.5242   
    1.17490       2.5242   
    1.20226       2.5242   
    1.23027       2.5242   
    1.25893       2.5242   
    1.28825       2.5242   
    1.31826       2.5242   
    1.34896       2.5242   
    1.38038       2.5242   
    1.41254       2.5242   
    1.44544       2.5242   
    1.47911       2.5242   
    1.51356       2.5242   
    1.54882       2.5242   
    1.58489       2.5242   
    1.62181       2.5242   
    1.65959       2.5242   
    1.69824       2.5242   
    1.73780       2.5242   
    1.77828       2.5242   
    1.81970       2.5242   
    1.86209       2.5242   
    1.90546       2.5242   
    1.94984       2.5242   
    1.99526       2.5242   
    2.04174       2.5242   
    2.08930       2.5242   
    2.13796       2.5242   
    2.18776       2.5242   
    2.23872       2.5242   
    2.29087       2.5242   
    2.34423       2.5242   
    2.39883       2.5242   
    2.45471       2.5242   
    2.51189       2.5242   
    2.57040       2.5242   
    2.63027       2.5242   
    2.69153       2.5242   
    2.75423       2.5242   
    2.81838       2.5242   
    2.88403       2.5242   
    2.95121       2.5242   
    3.01995       2.5242   
    3.09030       2.5242   
    3.16228       2.5242   
    3.23594       2.5242   
    3.31131       2.5242   
    3.38844       2.5242   
    3.46737       2.5242   
    3.54813       2.5242   
    3.63078       2.5242   
    3.71535       2.5242   
    3.80189       2.5242   
    3.89045       2.5242   
    3.98107       2.5242   
    4.07380       2.5242   
    4.16869       2.5242   
    4.26580       2.5242   
    4.36516       2.5242   
    4.46684       2.5242   
    4.57088       2.5242   
    4.67735       2.5242   
    4.78630       2.5242   
    4.89779       2.5242   
    5.01187       2.5242   
    5.12861       2.5242   
    5.24807       2.5242   
    5.37032       2.5242   
    5.49541       2.5242   
    5.62341       2.5242   
    5.75440       2.5242   
    5.88844       2.5242   
    6.02560       2.5242   
    6.16595       2.5242   
    6.30957       2.5242   
    6.45654       2.5242   
    6.60693       2.5242   
    6.76083       2.5242   
    6.91831       2.5242   
    7.07946       2.5242   
    7.24436       2.5242   
    7.41310       2.5242   
    7.58578       2.5242   
    7.76247       2.5242   
    7.94328       2.5242   
    8.12831       2.5242   
    8.31764       2.5242   
    8.51138       2.5242   
    8.70964       2.5242   
    8.91251       2.5242   
    9.12011       2.5242   
    9.33254       2.5242   
    9.54993       2.5242   
    9.77237       2.5242   
   10.00000       2.5242   
   10.23293       2.5242   
   10.47129       2.5242   
   10.71519       2.5242   
   10.96478       2.5242   
   11.22018       2.5242   
   11.48154       2.5242   
   11.74898       2.5242   
   12.02264       2.5242   
   12.30269       2.5242   
   12.58925       2.5242   
   12.88250       2.5242   
   13.18257       2.5242   
   13.48963       2.5242   
   13.80384       2.5242   
   14.12538       2.5242   
   14.45440       2.5242   
   14.79108       2.5242   
   15.13561       2.5242   
   15.48817       2.5242   
   15.84893       2.5242   
   16.21810       2.5242   
   16.59587       2.5242   
   16.98244       2.5242   
   17.37801       2.5242   
   17.78279       2.5242   
   18.19701       2.5242   
   18.62087       2.5242   
   19.05461       2.5242   
   19.49845       2.5242   
   19.95262       2.5242   
   20.41738       2.5242   
   20.89296       2.5242   
   21.37962       2.5242   
   21.87762       2.5242   
   22.38721       2.5242   
   22.90868       2.5242   
   23.44229       2.5242   
   23.98833       2.5242   
   24.54709       2.5242   
   25.11886       2.5242   
   25.70396       2.5242   
   26.30268       2.5242   
   26.91535       2.5242   
   27.54229       2.5242   
   28.18383       2.5242   
   28.84032       2.5242   
   29.51209       2.5242   
   30.19952       2.5242   
   30.90295       2.5242   
   31.62278       2.5242   
   32.35937       2.5242   
   33.11311       2.5242   
   33.88442       2.5242   
   34.67369       2.5242   
   35.48134       2.5242   
   36.30781       2.5242   
   37.15352       2.5242   
   38.01894       2.5242   
   38.90451       2.5242   
   39.81072       2.5242   
   40.73803       2.5242   
   41.68694       2.5242   
   42.65795       2.5242   
   43.65158       2.5242   
   44.66836       2.5242   
   45.70882       2.5242   
   46.77351       2.5242   
   47.86301       2.5242   
   48.97788       2.5242   
   50.11872       2.5242   
   51.28614       2.5242   
   52.48075       2.5242   
   53.70318       2.5242   
   54.95409       2.5242   
   56.23413       2.5242   
   57.54399       2.5242   
   58.88437       2.5242   
   60.25596       2.5242   
   61.65950       2.5242   
   63.09573       2.5242   
   64.56542       2.5242   
   66.06934       2.5242   
   67.60830       2.5242   
   69.18310       2.5242   
   70.79458       2.5242   
   72.44360       2.5242   
   74.13102       2.5242   
   75.85776       2.5242   
   77.62471       2.5242   
   79.43282       2.5242   
   81.28305       2.5242   
   83.17638       2.5242   
   85.11380       2.5242   
   87.09636       2.5242   
   89.12509       2.5242   
   91.20108       2.5242   
   93.32543       2.5242   
   95.49926       2.5242   
   97.72372       2.5242   
  100.00000       2.5242   
  102.32930       2.5242   
  104.71285       2.5242   
  107.15193       2.5242   
  109.64782       2.5242   
  112.20185       2.5242   
  114.81536       2.5242   
  117.48976       2.5242   
  120.22644       2.5242   
  123.02688       2.5242   
  125.89254       2.5242   
  128.82496       2.5242   
  131.82567       2.5242   
  134.89629       2.5242   
  138.03843       2.5242   
  141.25375       2.5242   
  144.54398       2.5242   
  147.91084       2.5242   
  151.35612       2.5242   
  154.88166       2.5242   
  158.48932       2.5242   
  162.18101       2.5242   
  165.95869       2.5242   
  169.82437       2.5242   
  173.78008       2.5242   
  177.82794       2.5242   
  181.97009       2.5242   
  186.20871       2.5242   
  190.54607       2.5242   
  194.98446       2.5242   
  199.52623       2.5242   
  204.17379       2.5242   
  208.92961       2.5242   
  213.79621       2.5242   
  218.77616       2.5242   
  223.87211       2.5242   
  229.08677       2.5242   
  234.42288       2.5242   
  239.88329       2.5242   
  245.47089       2.5242   
  251.18864       2.5242   
  257.03958       2.5242   
  263.02680       2.5242   
  269.15348       2.5242   
  275.42287       2.5242   
  281.83829       2.5242   
  288.40315       2.5242   
  295.12092       2.5242   
  301.99517       2.5242   
  309.02954       2.5242   
  316.22777       2.5242   
  323.59366       2.5242   
  331.13112       2.5242   
  338.84416       2.5242   
  346.73685       2.5242   
  354.81339       2.5242   
  363.07805       2.5242   
  371.53523       2.5242   
  380.18940       2.5242   
  389.04514       2.5242   
  398.10717       2.5242   
  407.38028       2.5242   
  416.86938       2.5242   
  426.57952       2.5242   
  436.51583       2.5242   
  446.68359       2.5242   
  457.08819       2.5242   
  467.73514       2.5242   
  478.63009       2.5242   
  489.77882       2.5242   
  501.18723       2.5242   
  512.86138       2.5242   
  524.80746       2.5242   
  537.03180       2.5242   
  549.54087       2.5242   
  562.34133       2.5242   
  575.43994       2.5242   
  588.84366       2.5242   
  602.55959       2.5242   
  616.59500       2.5242   
  630.95734       2.5242   
  645.65423       2.5242   
  660.69345       2.5242   
  676.08298       2.5242   
  691.83097       2.5242   
  707.94578       2.5242   
  724.43596       2.5242   
  741.31024       2.5242   
  758.57758       2.5242   
  776.24712       2.5242   
  794.32823       2.5242   
  812.83052       2.5242   
  831.76377       2.5242   
  851.13804       2.5242   
  870.96359       2.5242   
  891.25094       2.5242   
  912.01084       2.5242   
  933.25430       2.5242   
  954.99259       2.5242   
  977.23722       2.5242   
    1.00000k      2.5242   
    1.02329k      2.5242   
    1.04713k      2.5242   
    1.07152k      2.5242   
    1.09648k      2.5242   
    1.12202k      2.5242   
    1.14815k      2.5242   
    1.17490k      2.5242   
    1.20226k      2.5242   
    1.23027k      2.5242   
    1.25893k      2.5242   
    1.28825k      2.5242   
    1.31826k      2.5242   
    1.34896k      2.5242   
    1.38038k      2.5242   
    1.41254k      2.5242   
    1.44544k      2.5242   
    1.47911k      2.5242   
    1.51356k      2.5242   
    1.54882k      2.5242   
    1.58489k      2.5242   
    1.62181k      2.5242   
    1.65959k      2.5242   
    1.69824k      2.5242   
    1.73780k      2.5242   
    1.77828k      2.5242   
    1.81970k      2.5242   
    1.86209k      2.5242   
    1.90546k      2.5242   
    1.94984k      2.5242   
    1.99526k      2.5242   
    2.04174k      2.5242   
    2.08930k      2.5242   
    2.13796k      2.5242   
    2.18776k      2.5242   
    2.23872k      2.5242   
    2.29087k      2.5242   
    2.34423k      2.5242   
    2.39883k      2.5242   
    2.45471k      2.5242   
    2.51189k      2.5242   
    2.57040k      2.5242   
    2.63027k      2.5242   
    2.69153k      2.5242   
    2.75423k      2.5242   
    2.81838k      2.5242   
    2.88403k      2.5242   
    2.95121k      2.5242   
    3.01995k      2.5242   
    3.09030k      2.5242   
    3.16228k      2.5242   
    3.23594k      2.5243   
    3.31131k      2.5243   
    3.38844k      2.5243   
    3.46737k      2.5243   
    3.54813k      2.5243   
    3.63078k      2.5243   
    3.71535k      2.5243   
    3.80189k      2.5243   
    3.89045k      2.5243   
    3.98107k      2.5243   
    4.07380k      2.5243   
    4.16869k      2.5243   
    4.26580k      2.5243   
    4.36516k      2.5243   
    4.46684k      2.5243   
    4.57088k      2.5243   
    4.67735k      2.5243   
    4.78630k      2.5243   
    4.89779k      2.5243   
    5.01187k      2.5243   
    5.12861k      2.5243   
    5.24807k      2.5243   
    5.37032k      2.5243   
    5.49541k      2.5243   
    5.62341k      2.5243   
    5.75440k      2.5243   
    5.88844k      2.5243   
    6.02560k      2.5243   
    6.16595k      2.5243   
    6.30957k      2.5243   
    6.45654k      2.5244   
    6.60693k      2.5244   
    6.76083k      2.5244   
    6.91831k      2.5244   
    7.07946k      2.5244   
    7.24436k      2.5244   
    7.41310k      2.5244   
    7.58578k      2.5244   
    7.76247k      2.5244   
    7.94328k      2.5244   
    8.12831k      2.5244   
    8.31764k      2.5244   
    8.51138k      2.5245   
    8.70964k      2.5245   
    8.91251k      2.5245   
    9.12011k      2.5245   
    9.33254k      2.5245   
    9.54993k      2.5245   
    9.77237k      2.5245   
   10.00000k      2.5245   
   10.23293k      2.5246   
   10.47129k      2.5246   
   10.71519k      2.5246   
   10.96478k      2.5246   
   11.22018k      2.5246   
   11.48154k      2.5247   
   11.74898k      2.5247   
   12.02264k      2.5247   
   12.30269k      2.5247   
   12.58925k      2.5247   
   12.88250k      2.5248   
   13.18257k      2.5248   
   13.48963k      2.5248   
   13.80384k      2.5248   
   14.12538k      2.5249   
   14.45440k      2.5249   
   14.79108k      2.5249   
   15.13561k      2.5250   
   15.48817k      2.5250   
   15.84893k      2.5250   
   16.21810k      2.5251   
   16.59587k      2.5251   
   16.98244k      2.5252   
   17.37801k      2.5252   
   17.78279k      2.5253   
   18.19701k      2.5253   
   18.62087k      2.5254   
   19.05461k      2.5254   
   19.49845k      2.5255   
   19.95262k      2.5255   
   20.41738k      2.5256   
   20.89296k      2.5257   
   21.37962k      2.5257   
   21.87762k      2.5258   
   22.38721k      2.5259   
   22.90868k      2.5259   
   23.44229k      2.5260   
   23.98833k      2.5261   
   24.54709k      2.5262   
   25.11886k      2.5263   
   25.70396k      2.5264   
   26.30268k      2.5265   
   26.91535k      2.5266   
   27.54229k      2.5267   
   28.18383k      2.5268   
   28.84032k      2.5270   
   29.51209k      2.5271   
   30.19952k      2.5272   
   30.90295k      2.5274   
   31.62278k      2.5275   
   32.35937k      2.5277   
   33.11311k      2.5278   
   33.88442k      2.5280   
   34.67369k      2.5282   
   35.48134k      2.5284   
   36.30781k      2.5286   
   37.15352k      2.5288   
   38.01894k      2.5290   
   38.90451k      2.5292   
   39.81072k      2.5294   
   40.73803k      2.5297   
   41.68694k      2.5299   
   42.65795k      2.5302   
   43.65158k      2.5305   
   44.66836k      2.5308   
   45.70882k      2.5311   
   46.77351k      2.5314   
   47.86301k      2.5318   
   48.97788k      2.5321   
   50.11872k      2.5325   
   51.28614k      2.5329   
   52.48075k      2.5333   
   53.70318k      2.5337   
   54.95409k      2.5341   
   56.23413k      2.5346   
   57.54399k      2.5351   
   58.88437k      2.5356   
   60.25596k      2.5362   
   61.65950k      2.5367   
   63.09573k      2.5373   
   64.56542k      2.5379   
   66.06934k      2.5386   
   67.60830k      2.5392   
   69.18310k      2.5399   
   70.79458k      2.5407   
   72.44360k      2.5415   
   74.13102k      2.5423   
   75.85776k      2.5431   
   77.62471k      2.5440   
   79.43282k      2.5449   
   81.28305k      2.5459   
   83.17638k      2.5469   
   85.11380k      2.5480   
   87.09636k      2.5491   
   89.12509k      2.5503   
   91.20108k      2.5515   
   93.32543k      2.5528   
   95.49926k      2.5541   
   97.72372k      2.5555   
  100.00000k      2.5570   
  102.32930k      2.5586   
  104.71285k      2.5602   
  107.15193k      2.5619   
  109.64782k      2.5636   
  112.20185k      2.5655   
  114.81536k      2.5674   
  117.48976k      2.5694   
  120.22644k      2.5715   
  123.02688k      2.5738   
  125.89254k      2.5761   
  128.82496k      2.5785   
  131.82567k      2.5810   
  134.89629k      2.5837   
  138.03843k      2.5865   
  141.25375k      2.5894   
  144.54398k      2.5924   
  147.91084k      2.5956   
  151.35612k      2.5990   
  154.88166k      2.6025   
  158.48932k      2.6061   
  162.18101k      2.6099   
  165.95869k      2.6139   
  169.82437k      2.6181   
  173.78008k      2.6225   
  177.82794k      2.6271   
  181.97009k      2.6318   
  186.20871k      2.6368   
  190.54607k      2.6421   
  194.98446k      2.6476   
  199.52623k      2.6533   
  204.17379k      2.6593   
  208.92961k      2.6655   
  213.79621k      2.6721   
  218.77616k      2.6789   
  223.87211k      2.6860   
  229.08677k      2.6935   
  234.42288k      2.7013   
  239.88329k      2.7095   
  245.47089k      2.7180   
  251.18864k      2.7269   
  257.03958k      2.7362   
  263.02680k      2.7460   
  269.15348k      2.7561   
  275.42287k      2.7668   
  281.83829k      2.7778   
  288.40315k      2.7894   
  295.12092k      2.8015   
  301.99517k      2.8141   
  309.02954k      2.8273   
  316.22777k      2.8411   
  323.59366k      2.8554   
  331.13112k      2.8704   
  338.84416k      2.8860   
  346.73685k      2.9023   
  354.81339k      2.9193   
  363.07805k      2.9370   
  371.53523k      2.9555   
  380.18940k      2.9747   
  389.04514k      2.9948   
  398.10717k      3.0157   
  407.38028k      3.0375   
  416.86938k      3.0602   
  426.57952k      3.0838   
  436.51583k      3.1084   
  446.68359k      3.1339   
  457.08819k      3.1606   
  467.73514k      3.1883   
  478.63009k      3.2171   
  489.77882k      3.2470   
  501.18723k      3.2781   
  512.86138k      3.3105   
  524.80746k      3.3441   
  537.03180k      3.3790   
  549.54087k      3.4152   
  562.34133k      3.4528   
  575.43994k      3.4917   
  588.84366k      3.5322   
  602.55959k      3.5741   
  616.59500k      3.6175   
  630.95734k      3.6625   
  645.65423k      3.7091   
  660.69345k      3.7573   
  676.08298k      3.8072   
  691.83097k      3.8588   
  707.94578k      3.9121   
  724.43596k      3.9672   
  741.31024k      4.0241   
  758.57758k      4.0828   
  776.24712k      4.1434   
  794.32823k      4.2060   
  812.83052k      4.2704   
  831.76377k      4.3368   
  851.13804k      4.4052   
  870.96359k      4.4756   
  891.25094k      4.5480   
  912.01084k      4.6224   
  933.25430k      4.6989   
  954.99259k      4.7775   
  977.23722k      4.8582   
    1.00000x      4.9409   
    1.02329x      5.0258   
    1.04713x      5.1127   
    1.07152x      5.2018   
    1.09648x      5.2930   
    1.12202x      5.3863   
    1.14815x      5.4816   
    1.17490x      5.5791   
    1.20226x      5.6787   
    1.23027x      5.7803   
    1.25893x      5.8839   
    1.28825x      5.9896   
    1.31826x      6.0972   
    1.34896x      6.2069   
    1.38038x      6.3184   
    1.41254x      6.4319   
    1.44544x      6.5473   
    1.47911x      6.6645   
    1.51356x      6.7835   
    1.54882x      6.9043   
    1.58489x      7.0267   
    1.62181x      7.1509   
    1.65959x      7.2766   
    1.69824x      7.4039   
    1.73780x      7.5328   
    1.77828x      7.6631   
    1.81970x      7.7948   
    1.86209x      7.9278   
    1.90546x      8.0622   
    1.94984x      8.1977   
    1.99526x      8.3344   
    2.04174x      8.4722   
    2.08930x      8.6111   
    2.13796x      8.7509   
    2.18776x      8.8916   
    2.23872x      9.0331   
    2.29087x      9.1754   
    2.34423x      9.3183   
    2.39883x      9.4619   
    2.45471x      9.6060   
    2.51189x      9.7506   
    2.57040x      9.8955   
    2.63027x     10.0408   
    2.69153x     10.1863   
    2.75423x     10.3320   
    2.81838x     10.4778   
    2.88403x     10.6235   
    2.95121x     10.7692   
    3.01995x     10.9148   
    3.09030x     11.0601   
    3.16228x     11.2051   
    3.23594x     11.3498   
    3.31131x     11.4939   
    3.38844x     11.6375   
    3.46737x     11.7805   
    3.54813x     11.9228   
    3.63078x     12.0643   
    3.71535x     12.2049   
    3.80189x     12.3446   
    3.89045x     12.4832   
    3.98107x     12.6207   
    4.07380x     12.7570   
    4.16869x     12.8920   
    4.26580x     13.0257   
    4.36516x     13.1579   
    4.46684x     13.2886   
    4.57088x     13.4177   
    4.67735x     13.5451   
    4.78630x     13.6707   
    4.89779x     13.7945   
    5.01187x     13.9163   
    5.12861x     14.0362   
    5.24807x     14.1539   
    5.37032x     14.2695   
    5.49541x     14.3829   
    5.62341x     14.4939   
    5.75440x     14.6025   
    5.88844x     14.7087   
    6.02560x     14.8123   
    6.16595x     14.9134   
    6.30957x     15.0117   
    6.45654x     15.1074   
    6.60693x     15.2002   
    6.76083x     15.2901   
    6.91831x     15.3771   
    7.07946x     15.4611   
    7.24436x     15.5420   
    7.41310x     15.6198   
    7.58578x     15.6945   
    7.76247x     15.7659   
    7.94328x     15.8340   
    8.12831x     15.8989   
    8.31764x     15.9603   
    8.51138x     16.0184   
    8.70964x     16.0730   
    8.91251x     16.1241   
    9.12011x     16.1716   
    9.33254x     16.2156   
    9.54993x     16.2560   
    9.77237x     16.2928   
   10.00000x     16.3259   
   10.23293x     16.3553   
   10.47129x     16.3810   
   10.71519x     16.4030   
   10.96478x     16.4213   
   11.22018x     16.4358   
   11.48154x     16.4465   
   11.74898x     16.4534   
   12.02264x     16.4566   
   12.30269x     16.4559   
   12.58925x     16.4514   
   12.88250x     16.4432   
   13.18257x     16.4311   
   13.48963x     16.4153   
   13.80384x     16.3956   
   14.12538x     16.3722   
   14.45440x     16.3450   
   14.79108x     16.3140   
   15.13561x     16.2793   
   15.48817x     16.2408   
   15.84893x     16.1986   
   16.21810x     16.1528   
   16.59587x     16.1033   
   16.98244x     16.0501   
   17.37801x     15.9934   
   17.78279x     15.9330   
   18.19701x     15.8692   
   18.62087x     15.8018   
   19.05461x     15.7309   
   19.49845x     15.6566   
   19.95262x     15.5790   
   20.41738x     15.4979   
   20.89296x     15.4136   
   21.37962x     15.3260   
   21.87762x     15.2352   
   22.38721x     15.1412   
   22.90868x     15.0442   
   23.44229x     14.9441   
   23.98833x     14.8410   
   24.54709x     14.7349   
   25.11886x     14.6260   
   25.70396x     14.5142   
   26.30268x     14.3997   
   26.91535x     14.2824   
   27.54229x     14.1625   
   28.18383x     14.0400   
   28.84032x     13.9150   
   29.51209x     13.7876   
   30.19952x     13.6577   
   30.90295x     13.5255   
   31.62278x     13.3910   
   32.35937x     13.2543   
   33.11311x     13.1155   
   33.88442x     12.9745   
   34.67369x     12.8316   
   35.48134x     12.6867   
   36.30781x     12.5399   
   37.15352x     12.3912   
   38.01894x     12.2408   
   38.90451x     12.0887   
   39.81072x     11.9349   
   40.73803x     11.7795   
   41.68694x     11.6226   
   42.65795x     11.4642   
   43.65158x     11.3043   
   44.66836x     11.1432   
   45.70882x     10.9807   
   46.77351x     10.8169   
   47.86301x     10.6520   
   48.97788x     10.4859   
   50.11872x     10.3187   
   51.28614x     10.1505   
   52.48075x      9.9813   
   53.70318x      9.8111   
   54.95409x      9.6401   
   56.23413x      9.4682   
   57.54399x      9.2955   
   58.88437x      9.1221   
   60.25596x      8.9480   
   61.65950x      8.7733   
   63.09573x      8.5979   
   64.56542x      8.4220   
   66.06934x      8.2456   
   67.60830x      8.0687   
   69.18310x      7.8914   
   70.79458x      7.7137   
   72.44360x      7.5356   
   74.13102x      7.3573   
   75.85776x      7.1787   
   77.62471x      6.9999   
   79.43282x      6.8210   
   81.28305x      6.6419   
   83.17638x      6.4627   
   85.11380x      6.2835   
   87.09636x      6.1043   
   89.12509x      5.9252   
   91.20108x      5.7461   
   93.32543x      5.5671   
   95.49926x      5.3883   
   97.72372x      5.2098   
  100.00000x      5.0315   
  102.32930x      4.8535   
  104.71285x      4.6758   
  107.15193x      4.4985   
  109.64782x      4.3216   
  112.20185x      4.1452   
  114.81536x      3.9694   
  117.48976x      3.7941   
  120.22644x      3.6194   
  123.02688x      3.4453   
  125.89254x      3.2719   
  128.82496x      3.0993   
  131.82567x      2.9275   
  134.89629x      2.7565   
  138.03843x      2.5863   
  141.25375x      2.4171   
  144.54398x      2.2489   
  147.91084x      2.0817   
  151.35612x      1.9156   
  154.88166x      1.7506   
  158.48932x      1.5867   
  162.18101x      1.4241   
  165.95869x      1.2627   
  169.82437x      1.1026   
  173.78008x    943.8718m  
  177.82794x    786.5462m  
  181.97009x    630.6687m  
  186.20871x    476.2863m  
  190.54607x    323.4446m  
  194.98446x    172.1903m  
  199.52623x     22.5682m  
  204.17379x   -125.3772m  
  208.92961x   -271.6015m  
  213.79621x   -416.0622m  
  218.77616x   -558.7176m  
  223.87211x   -699.5251m  
  229.08677x   -838.4474m  
  234.42288x   -975.4440m  
  239.88329x     -1.1105   
  245.47089x     -1.2435   
  251.18864x     -1.3745   
  257.03958x     -1.5035   
  263.02680x     -1.6303   
  269.15348x     -1.7550   
  275.42287x     -1.8776   
  281.83829x     -1.9980   
  288.40315x     -2.1162   
  295.12092x     -2.2322   
  301.99517x     -2.3459   
  309.02954x     -2.4574   
  316.22777x     -2.5666   
  323.59366x     -2.6736   
  331.13112x     -2.7783   
  338.84416x     -2.8806   
  346.73685x     -2.9807   
  354.81339x     -3.0785   
  363.07805x     -3.1740   
  371.53523x     -3.2672   
  380.18940x     -3.3581   
  389.04514x     -3.4468   
  398.10717x     -3.5331   
  407.38028x     -3.6173   
  416.86938x     -3.6992   
  426.57952x     -3.7789   
  436.51583x     -3.8564   
  446.68359x     -3.9317   
  457.08819x     -4.0049   
  467.73514x     -4.0759   
  478.63009x     -4.1449   
  489.77882x     -4.2118   
  501.18723x     -4.2766   
  512.86138x     -4.3395   
  524.80746x     -4.4004   
  537.03180x     -4.4593   
  549.54087x     -4.5164   
  562.34133x     -4.5716   
  575.43994x     -4.6250   
  588.84366x     -4.6766   
  602.55959x     -4.7264   
  616.59500x     -4.7746   
  630.95734x     -4.8211   
  645.65423x     -4.8659   
  660.69345x     -4.9092   
  676.08298x     -4.9510   
  691.83097x     -4.9912   
  707.94578x     -5.0300   
  724.43596x     -5.0674   
  741.31024x     -5.1034   
  758.57758x     -5.1380   
  776.24712x     -5.1714   
  794.32823x     -5.2034   
  812.83052x     -5.2343   
  831.76377x     -5.2640   
  851.13804x     -5.2925   
  870.96359x     -5.3200   
  891.25094x     -5.3463   
  912.01084x     -5.3716   
  933.25430x     -5.3960   
  954.99259x     -5.4193   
  977.23722x     -5.4417   
    1.00000g     -5.4633   
y

          ***** job concluded
1****** HSPICE -- B-2008.09-SP1 32-BIT (Nov 24 2008) linux ******               
 ******  
 *3.1

  ******  ac analysis tnom=  25.000 temp=  25.000 *****
 ***** operating point status is all       simulation time is     0.     

   *** parameter d                =    8.455E-01 ***

    node    =voltage      node    =voltage      node    =voltage

 +0:vb      = 490.0000m 0:vdd     =   1.8000  0:vin+    = 954.5000m
 +0:vin-    = 845.5000m 0:vout+   =   1.1500  0:vout-   = 460.6228m
 +0:vp      = 442.1886m


 maximum nodal capacitance=   2.288E-12         on node     0:vp              

    nodal  capacitance table 

    node    =    cap      node    =    cap      node    =    cap

 +0:vb      =  33.3449f 0:vdd     =   0.      0:vin+    =   1.8493p
 +0:vin-    = 786.0193f 0:vout+   = 103.7232f 0:vout-   =   1.3645p
 +0:vp      =   2.2880p

 

 ****  voltage sources

 subckt                                              
 element  0:vdd      0:vin+     0:vin-     0:vb      
  volts      1.8000   954.5000m  845.5000m  490.0000m
  current  -19.8942u    0.         0.         0.     
  power     35.8095u    0.         0.         0.     

     total voltage source power dissipation=   35.8095u       watts



 **** resistors

 subckt                        
 element  0:r1       0:r0      
  r value  100.0000k  100.0000k
  v drop     1.3394   650.0390m
  current   13.3938u    6.5004u
  power     17.9393u    4.2255u



 **** mosfets


 subckt                                   
 element  0:m3       0:m2       0:m1      
 model    0:n_18.1   0:n_18.1   0:n_18.1  
 region     Saturati     Cutoff     Linear
  id        19.8942u    6.5004u   13.3938u
  ibs     -3.219e-21   -2.6516f   -2.6516f
  ibd     -344.0195a   -6.8957f   -2.7621f
  vgs      490.0000m  403.3114m  512.3114m
  vds      442.1886m  707.7724m   18.4342m
  vbs        0.      -442.1886m -442.1886m
  vth      443.8093m  419.7593m  423.7586m
  vdsat     92.4193m   56.5208m  109.9710m
  vod       46.1907m  -16.4479m   88.5528m
  beta       6.4796m    9.1416m    9.1648m
  gam eff  507.4460m  518.5911m  518.5911m
  gm       349.6847u  151.5752u  137.4609u
  gds        5.9128u    1.2499u  656.2483u
  gmb       68.2902u   25.3134u   23.2981u
  cdtot     13.9907f  103.7232f    1.3645p
  cgtot     33.3449f  786.0193f    1.8493p
  cstot     40.2124f  626.7541f    1.6472p
  cbtot     29.5470f  482.7600f  532.3328f
  cgs       26.1617f  502.8564f    1.2093p
  cgd        3.6538f   30.3234f  574.2349f



 ******  
 *3.1

  ******  ac analysis tnom=  25.000 temp=  25.000 *****
x

        freq    volt db    
                   vout+   
                   vout-   
    1.00000       2.6077   
    1.02329       2.6077   
    1.04713       2.6077   
    1.07152       2.6077   
    1.09648       2.6077   
    1.12202       2.6077   
    1.14815       2.6077   
    1.17490       2.6077   
    1.20226       2.6077   
    1.23027       2.6077   
    1.25893       2.6077   
    1.28825       2.6077   
    1.31826       2.6077   
    1.34896       2.6077   
    1.38038       2.6077   
    1.41254       2.6077   
    1.44544       2.6077   
    1.47911       2.6077   
    1.51356       2.6077   
    1.54882       2.6077   
    1.58489       2.6077   
    1.62181       2.6077   
    1.65959       2.6077   
    1.69824       2.6077   
    1.73780       2.6077   
    1.77828       2.6077   
    1.81970       2.6077   
    1.86209       2.6077   
    1.90546       2.6077   
    1.94984       2.6077   
    1.99526       2.6077   
    2.04174       2.6077   
    2.08930       2.6077   
    2.13796       2.6077   
    2.18776       2.6077   
    2.23872       2.6077   
    2.29087       2.6077   
    2.34423       2.6077   
    2.39883       2.6077   
    2.45471       2.6077   
    2.51189       2.6077   
    2.57040       2.6077   
    2.63027       2.6077   
    2.69153       2.6077   
    2.75423       2.6077   
    2.81838       2.6077   
    2.88403       2.6077   
    2.95121       2.6077   
    3.01995       2.6077   
    3.09030       2.6077   
    3.16228       2.6077   
    3.23594       2.6077   
    3.31131       2.6077   
    3.38844       2.6077   
    3.46737       2.6077   
    3.54813       2.6077   
    3.63078       2.6077   
    3.71535       2.6077   
    3.80189       2.6077   
    3.89045       2.6077   
    3.98107       2.6077   
    4.07380       2.6077   
    4.16869       2.6077   
    4.26580       2.6077   
    4.36516       2.6077   
    4.46684       2.6077   
    4.57088       2.6077   
    4.67735       2.6077   
    4.78630       2.6077   
    4.89779       2.6077   
    5.01187       2.6077   
    5.12861       2.6077   
    5.24807       2.6077   
    5.37032       2.6077   
    5.49541       2.6077   
    5.62341       2.6077   
    5.75440       2.6077   
    5.88844       2.6077   
    6.02560       2.6077   
    6.16595       2.6077   
    6.30957       2.6077   
    6.45654       2.6077   
    6.60693       2.6077   
    6.76083       2.6077   
    6.91831       2.6077   
    7.07946       2.6077   
    7.24436       2.6077   
    7.41310       2.6077   
    7.58578       2.6077   
    7.76247       2.6077   
    7.94328       2.6077   
    8.12831       2.6077   
    8.31764       2.6077   
    8.51138       2.6077   
    8.70964       2.6077   
    8.91251       2.6077   
    9.12011       2.6077   
    9.33254       2.6077   
    9.54993       2.6077   
    9.77237       2.6077   
   10.00000       2.6077   
   10.23293       2.6077   
   10.47129       2.6077   
   10.71519       2.6077   
   10.96478       2.6077   
   11.22018       2.6077   
   11.48154       2.6077   
   11.74898       2.6077   
   12.02264       2.6077   
   12.30269       2.6077   
   12.58925       2.6077   
   12.88250       2.6077   
   13.18257       2.6077   
   13.48963       2.6077   
   13.80384       2.6077   
   14.12538       2.6077   
   14.45440       2.6077   
   14.79108       2.6077   
   15.13561       2.6077   
   15.48817       2.6077   
   15.84893       2.6077   
   16.21810       2.6077   
   16.59587       2.6077   
   16.98244       2.6077   
   17.37801       2.6077   
   17.78279       2.6077   
   18.19701       2.6077   
   18.62087       2.6077   
   19.05461       2.6077   
   19.49845       2.6077   
   19.95262       2.6077   
   20.41738       2.6077   
   20.89296       2.6077   
   21.37962       2.6077   
   21.87762       2.6077   
   22.38721       2.6077   
   22.90868       2.6077   
   23.44229       2.6077   
   23.98833       2.6077   
   24.54709       2.6077   
   25.11886       2.6077   
   25.70396       2.6077   
   26.30268       2.6077   
   26.91535       2.6077   
   27.54229       2.6077   
   28.18383       2.6077   
   28.84032       2.6077   
   29.51209       2.6077   
   30.19952       2.6077   
   30.90295       2.6077   
   31.62278       2.6077   
   32.35937       2.6077   
   33.11311       2.6077   
   33.88442       2.6077   
   34.67369       2.6077   
   35.48134       2.6077   
   36.30781       2.6077   
   37.15352       2.6077   
   38.01894       2.6077   
   38.90451       2.6077   
   39.81072       2.6077   
   40.73803       2.6077   
   41.68694       2.6077   
   42.65795       2.6077   
   43.65158       2.6077   
   44.66836       2.6077   
   45.70882       2.6077   
   46.77351       2.6077   
   47.86301       2.6077   
   48.97788       2.6077   
   50.11872       2.6077   
   51.28614       2.6077   
   52.48075       2.6077   
   53.70318       2.6077   
   54.95409       2.6077   
   56.23413       2.6077   
   57.54399       2.6077   
   58.88437       2.6077   
   60.25596       2.6077   
   61.65950       2.6077   
   63.09573       2.6077   
   64.56542       2.6077   
   66.06934       2.6077   
   67.60830       2.6077   
   69.18310       2.6077   
   70.79458       2.6077   
   72.44360       2.6077   
   74.13102       2.6077   
   75.85776       2.6077   
   77.62471       2.6077   
   79.43282       2.6077   
   81.28305       2.6077   
   83.17638       2.6077   
   85.11380       2.6077   
   87.09636       2.6077   
   89.12509       2.6077   
   91.20108       2.6077   
   93.32543       2.6077   
   95.49926       2.6077   
   97.72372       2.6077   
  100.00000       2.6077   
  102.32930       2.6077   
  104.71285       2.6077   
  107.15193       2.6077   
  109.64782       2.6077   
  112.20185       2.6077   
  114.81536       2.6077   
  117.48976       2.6077   
  120.22644       2.6077   
  123.02688       2.6077   
  125.89254       2.6077   
  128.82496       2.6077   
  131.82567       2.6077   
  134.89629       2.6077   
  138.03843       2.6077   
  141.25375       2.6077   
  144.54398       2.6077   
  147.91084       2.6077   
  151.35612       2.6077   
  154.88166       2.6077   
  158.48932       2.6077   
  162.18101       2.6077   
  165.95869       2.6077   
  169.82437       2.6077   
  173.78008       2.6077   
  177.82794       2.6077   
  181.97009       2.6077   
  186.20871       2.6077   
  190.54607       2.6077   
  194.98446       2.6077   
  199.52623       2.6077   
  204.17379       2.6077   
  208.92961       2.6077   
  213.79621       2.6077   
  218.77616       2.6077   
  223.87211       2.6077   
  229.08677       2.6077   
  234.42288       2.6077   
  239.88329       2.6077   
  245.47089       2.6077   
  251.18864       2.6077   
  257.03958       2.6077   
  263.02680       2.6077   
  269.15348       2.6077   
  275.42287       2.6077   
  281.83829       2.6077   
  288.40315       2.6077   
  295.12092       2.6077   
  301.99517       2.6077   
  309.02954       2.6077   
  316.22777       2.6077   
  323.59366       2.6077   
  331.13112       2.6077   
  338.84416       2.6077   
  346.73685       2.6077   
  354.81339       2.6077   
  363.07805       2.6077   
  371.53523       2.6077   
  380.18940       2.6077   
  389.04514       2.6077   
  398.10717       2.6077   
  407.38028       2.6077   
  416.86938       2.6077   
  426.57952       2.6077   
  436.51583       2.6077   
  446.68359       2.6077   
  457.08819       2.6077   
  467.73514       2.6077   
  478.63009       2.6077   
  489.77882       2.6077   
  501.18723       2.6077   
  512.86138       2.6077   
  524.80746       2.6077   
  537.03180       2.6077   
  549.54087       2.6077   
  562.34133       2.6077   
  575.43994       2.6077   
  588.84366       2.6077   
  602.55959       2.6077   
  616.59500       2.6077   
  630.95734       2.6077   
  645.65423       2.6077   
  660.69345       2.6077   
  676.08298       2.6077   
  691.83097       2.6077   
  707.94578       2.6077   
  724.43596       2.6077   
  741.31024       2.6077   
  758.57758       2.6077   
  776.24712       2.6077   
  794.32823       2.6077   
  812.83052       2.6077   
  831.76377       2.6077   
  851.13804       2.6077   
  870.96359       2.6077   
  891.25094       2.6077   
  912.01084       2.6077   
  933.25430       2.6077   
  954.99259       2.6077   
  977.23722       2.6077   
    1.00000k      2.6077   
    1.02329k      2.6077   
    1.04713k      2.6077   
    1.07152k      2.6077   
    1.09648k      2.6077   
    1.12202k      2.6077   
    1.14815k      2.6077   
    1.17490k      2.6077   
    1.20226k      2.6077   
    1.23027k      2.6077   
    1.25893k      2.6077   
    1.28825k      2.6077   
    1.31826k      2.6077   
    1.34896k      2.6077   
    1.38038k      2.6077   
    1.41254k      2.6077   
    1.44544k      2.6077   
    1.47911k      2.6077   
    1.51356k      2.6077   
    1.54882k      2.6077   
    1.58489k      2.6077   
    1.62181k      2.6077   
    1.65959k      2.6077   
    1.69824k      2.6077   
    1.73780k      2.6077   
    1.77828k      2.6077   
    1.81970k      2.6077   
    1.86209k      2.6077   
    1.90546k      2.6077   
    1.94984k      2.6077   
    1.99526k      2.6077   
    2.04174k      2.6077   
    2.08930k      2.6077   
    2.13796k      2.6077   
    2.18776k      2.6077   
    2.23872k      2.6077   
    2.29087k      2.6077   
    2.34423k      2.6077   
    2.39883k      2.6077   
    2.45471k      2.6077   
    2.51189k      2.6077   
    2.57040k      2.6077   
    2.63027k      2.6077   
    2.69153k      2.6077   
    2.75423k      2.6077   
    2.81838k      2.6077   
    2.88403k      2.6077   
    2.95121k      2.6077   
    3.01995k      2.6077   
    3.09030k      2.6077   
    3.16228k      2.6077   
    3.23594k      2.6077   
    3.31131k      2.6077   
    3.38844k      2.6077   
    3.46737k      2.6077   
    3.54813k      2.6077   
    3.63078k      2.6077   
    3.71535k      2.6077   
    3.80189k      2.6077   
    3.89045k      2.6077   
    3.98107k      2.6077   
    4.07380k      2.6077   
    4.16869k      2.6077   
    4.26580k      2.6077   
    4.36516k      2.6077   
    4.46684k      2.6077   
    4.57088k      2.6077   
    4.67735k      2.6077   
    4.78630k      2.6077   
    4.89779k      2.6077   
    5.01187k      2.6077   
    5.12861k      2.6078   
    5.24807k      2.6078   
    5.37032k      2.6078   
    5.49541k      2.6078   
    5.62341k      2.6078   
    5.75440k      2.6078   
    5.88844k      2.6078   
    6.02560k      2.6078   
    6.16595k      2.6078   
    6.30957k      2.6078   
    6.45654k      2.6078   
    6.60693k      2.6078   
    6.76083k      2.6078   
    6.91831k      2.6078   
    7.07946k      2.6078   
    7.24436k      2.6078   
    7.41310k      2.6078   
    7.58578k      2.6079   
    7.76247k      2.6079   
    7.94328k      2.6079   
    8.12831k      2.6079   
    8.31764k      2.6079   
    8.51138k      2.6079   
    8.70964k      2.6079   
    8.91251k      2.6079   
    9.12011k      2.6079   
    9.33254k      2.6079   
    9.54993k      2.6080   
    9.77237k      2.6080   
   10.00000k      2.6080   
   10.23293k      2.6080   
   10.47129k      2.6080   
   10.71519k      2.6080   
   10.96478k      2.6081   
   11.22018k      2.6081   
   11.48154k      2.6081   
   11.74898k      2.6081   
   12.02264k      2.6081   
   12.30269k      2.6082   
   12.58925k      2.6082   
   12.88250k      2.6082   
   13.18257k      2.6082   
   13.48963k      2.6083   
   13.80384k      2.6083   
   14.12538k      2.6083   
   14.45440k      2.6083   
   14.79108k      2.6084   
   15.13561k      2.6084   
   15.48817k      2.6084   
   15.84893k      2.6085   
   16.21810k      2.6085   
   16.59587k      2.6086   
   16.98244k      2.6086   
   17.37801k      2.6086   
   17.78279k      2.6087   
   18.19701k      2.6087   
   18.62087k      2.6088   
   19.05461k      2.6088   
   19.49845k      2.6089   
   19.95262k      2.6089   
   20.41738k      2.6090   
   20.89296k      2.6091   
   21.37962k      2.6091   
   21.87762k      2.6092   
   22.38721k      2.6093   
   22.90868k      2.6094   
   23.44229k      2.6094   
   23.98833k      2.6095   
   24.54709k      2.6096   
   25.11886k      2.6097   
   25.70396k      2.6098   
   26.30268k      2.6099   
   26.91535k      2.6100   
   27.54229k      2.6101   
   28.18383k      2.6102   
   28.84032k      2.6103   
   29.51209k      2.6105   
   30.19952k      2.6106   
   30.90295k      2.6107   
   31.62278k      2.6109   
   32.35937k      2.6110   
   33.11311k      2.6112   
   33.88442k      2.6114   
   34.67369k      2.6115   
   35.48134k      2.6117   
   36.30781k      2.6119   
   37.15352k      2.6121   
   38.01894k      2.6123   
   38.90451k      2.6125   
   39.81072k      2.6128   
   40.73803k      2.6130   
   41.68694k      2.6133   
   42.65795k      2.6135   
   43.65158k      2.6138   
   44.66836k      2.6141   
   45.70882k      2.6144   
   46.77351k      2.6147   
   47.86301k      2.6150   
   48.97788k      2.6154   
   50.11872k      2.6157   
   51.28614k      2.6161   
   52.48075k      2.6165   
   53.70318k      2.6169   
   54.95409k      2.6174   
   56.23413k      2.6178   
   57.54399k      2.6183   
   58.88437k      2.6188   
   60.25596k      2.6193   
   61.65950k      2.6199   
   63.09573k      2.6205   
   64.56542k      2.6211   
   66.06934k      2.6217   
   67.60830k      2.6224   
   69.18310k      2.6230   
   70.79458k      2.6238   
   72.44360k      2.6245   
   74.13102k      2.6253   
   75.85776k      2.6261   
   77.62471k      2.6270   
   79.43282k      2.6279   
   81.28305k      2.6289   
   83.17638k      2.6299   
   85.11380k      2.6309   
   87.09636k      2.6320   
   89.12509k      2.6332   
   91.20108k      2.6343   
   93.32543k      2.6356   
   95.49926k      2.6369   
   97.72372k      2.6383   
  100.00000k      2.6397   
  102.32930k      2.6412   
  104.71285k      2.6428   
  107.15193k      2.6445   
  109.64782k      2.6462   
  112.20185k      2.6480   
  114.81536k      2.6499   
  117.48976k      2.6519   
  120.22644k      2.6539   
  123.02688k      2.6561   
  125.89254k      2.6584   
  128.82496k      2.6607   
  131.82567k      2.6632   
  134.89629k      2.6658   
  138.03843k      2.6685   
  141.25375k      2.6714   
  144.54398k      2.6744   
  147.91084k      2.6775   
  151.35612k      2.6807   
  154.88166k      2.6842   
  158.48932k      2.6877   
  162.18101k      2.6915   
  165.95869k      2.6954   
  169.82437k      2.6995   
  173.78008k      2.7037   
  177.82794k      2.7082   
  181.97009k      2.7129   
  186.20871k      2.7178   
  190.54607k      2.7229   
  194.98446k      2.7283   
  199.52623k      2.7338   
  204.17379k      2.7397   
  208.92961k      2.7458   
  213.79621k      2.7522   
  218.77616k      2.7589   
  223.87211k      2.7659   
  229.08677k      2.7732   
  234.42288k      2.7809   
  239.88329k      2.7888   
  245.47089k      2.7972   
  251.18864k      2.8059   
  257.03958k      2.8150   
  263.02680k      2.8245   
  269.15348k      2.8345   
  275.42287k      2.8449   
  281.83829k      2.8557   
  288.40315k      2.8671   
  295.12092k      2.8789   
  301.99517k      2.8912   
  309.02954k      2.9041   
  316.22777k      2.9176   
  323.59366k      2.9316   
  331.13112k      2.9463   
  338.84416k      2.9616   
  346.73685k      2.9775   
  354.81339k      2.9942   
  363.07805k      3.0115   
  371.53523k      3.0296   
  380.18940k      3.0485   
  389.04514k      3.0681   
  398.10717k      3.0886   
  407.38028k      3.1100   
  416.86938k      3.1322   
  426.57952k      3.1553   
  436.51583k      3.1794   
  446.68359k      3.2045   
  457.08819k      3.2306   
  467.73514k      3.2578   
  478.63009k      3.2860   
  489.77882k      3.3154   
  501.18723k      3.3459   
  512.86138k      3.3777   
  524.80746k      3.4106   
  537.03180k      3.4449   
  549.54087k      3.4804   
  562.34133k      3.5173   
  575.43994k      3.5556   
  588.84366k      3.5953   
  602.55959k      3.6364   
  616.59500k      3.6791   
  630.95734k      3.7233   
  645.65423k      3.7690   
  660.69345k      3.8164   
  676.08298k      3.8655   
  691.83097k      3.9162   
  707.94578k      3.9686   
  724.43596k      4.0228   
  741.31024k      4.0788   
  758.57758k      4.1366   
  776.24712k      4.1963   
  794.32823k      4.2578   
  812.83052k      4.3213   
  831.76377k      4.3867   
  851.13804k      4.4541   
  870.96359k      4.5234   
  891.25094k      4.5948   
  912.01084k      4.6682   
  933.25430k      4.7436   
  954.99259k      4.8211   
  977.23722k      4.9007   
    1.00000x      4.9824   
    1.02329x      5.0662   
    1.04713x      5.1520   
    1.07152x      5.2400   
    1.09648x      5.3301   
    1.12202x      5.4223   
    1.14815x      5.5165   
    1.17490x      5.6129   
    1.20226x      5.7113   
    1.23027x      5.8118   
    1.25893x      5.9144   
    1.28825x      6.0190   
    1.31826x      6.1256   
    1.34896x      6.2341   
    1.38038x      6.3446   
    1.41254x      6.4571   
    1.44544x      6.5714   
    1.47911x      6.6876   
    1.51356x      6.8056   
    1.54882x      6.9253   
    1.58489x      7.0468   
    1.62181x      7.1700   
    1.65959x      7.2948   
    1.69824x      7.4212   
[...]
  316.22777       2.4443   
  323.59366       2.4443   
  331.13112       2.4443   
  338.84416       2.4443   
  346.73685       2.4443   
  354.81339       2.4443   
  363.07805       2.4443   
  371.53523       2.4443   
  380.18940       2.4443   
  389.04514       2.4443   
  398.10717       2.4443   
  407.38028       2.4443   
  416.86938       2.4443   
  426.57952       2.4443   
  436.51583       2.4443   
  446.68359       2.4443   
  457.08819       2.4443   
  467.73514       2.4443   
  478.63009       2.4443   
  489.77882       2.4443   
  501.18723       2.4443   
  512.86138       2.4443   
  524.80746       2.4443   
  537.03180       2.4443   
  549.54087       2.4443   
  562.34133       2.4443   
  575.43994       2.4443   
  588.84366       2.4443   
  602.55959       2.4443   
  616.59500       2.4443   
  630.95734       2.4443   
  645.65423       2.4443   
  660.69345       2.4443   
  676.08298       2.4443   
  691.83097       2.4443   
  707.94578       2.4443   
  724.43596       2.4443   
  741.31024       2.4443   
  758.57758       2.4443   
  776.24712       2.4443   
  794.32823       2.4443   
  812.83052       2.4443   
  831.76377       2.4443   
  851.13804       2.4443   
  870.96359       2.4443   
  891.25094       2.4443   
  912.01084       2.4443   
  933.25430       2.4443   
  954.99259       2.4443   
  977.23722       2.4443   
    1.00000k      2.4443   
    1.02329k      2.4443   
    1.04713k      2.4443   
    1.07152k      2.4443   
    1.09648k      2.4443   
    1.12202k      2.4443   
    1.14815k      2.4443   
    1.17490k      2.4443   
    1.20226k      2.4443   
    1.23027k      2.4443   
    1.25893k      2.4443   
    1.28825k      2.4443   
    1.31826k      2.4443   
    1.34896k      2.4443   
    1.38038k      2.4443   
    1.41254k      2.4443   
    1.44544k      2.4443   
    1.47911k      2.4443   
    1.51356k      2.4443   
    1.54882k      2.4443   
    1.58489k      2.4443   
    1.62181k      2.4443   
    1.65959k      2.4443   
    1.69824k      2.4443   
    1.73780k      2.4443   
    1.77828k      2.4443   
    1.81970k      2.4443   
    1.86209k      2.4443   
    1.90546k      2.4443   
    1.94984k      2.4443   
    1.99526k      2.4443   
    2.04174k      2.4443   
    2.08930k      2.4443   
    2.13796k      2.4443   
    2.18776k      2.4443   
    2.23872k      2.4443   
    2.29087k      2.4443   
    2.34423k      2.4443   
    2.39883k      2.4443   
    2.45471k      2.4443   
    2.51189k      2.4443   
    2.57040k      2.4443   
    2.63027k      2.4443   
    2.69153k      2.4443   
    2.75423k      2.4443   
    2.81838k      2.4443   
    2.88403k      2.4443   
    2.95121k      2.4443   
    3.01995k      2.4443   
    3.09030k      2.4443   
    3.16228k      2.4443   
    3.23594k      2.4443   
    3.31131k      2.4443   
    3.38844k      2.4443   
    3.46737k      2.4443   
    3.54813k      2.4443   
    3.63078k      2.4443   
    3.71535k      2.4443   
    3.80189k      2.4443   
    3.89045k      2.4443   
    3.98107k      2.4443   
    4.07380k      2.4443   
    4.16869k      2.4443   
    4.26580k      2.4443   
    4.36516k      2.4443   
    4.46684k      2.4443   
    4.57088k      2.4443   
    4.67735k      2.4443   
    4.78630k      2.4443   
    4.89779k      2.4443   
    5.01187k      2.4443   
    5.12861k      2.4443   
    5.24807k      2.4444   
    5.37032k      2.4444   
    5.49541k      2.4444   
    5.62341k      2.4444   
    5.75440k      2.4444   
    5.88844k      2.4444   
    6.02560k      2.4444   
    6.16595k      2.4444   
    6.30957k      2.4444   
    6.45654k      2.4444   
    6.60693k      2.4444   
    6.76083k      2.4444   
    6.91831k      2.4444   
    7.07946k      2.4444   
    7.24436k      2.4444   
    7.41310k      2.4444   
    7.58578k      2.4445   
    7.76247k      2.4445   
    7.94328k      2.4445   
    8.12831k      2.4445   
    8.31764k      2.4445   
    8.51138k      2.4445   
    8.70964k      2.4445   
    8.91251k      2.4445   
    9.12011k      2.4445   
    9.33254k      2.4446   
    9.54993k      2.4446   
    9.77237k      2.4446   
   10.00000k      2.4446   
   10.23293k      2.4446   
   10.47129k      2.4446   
   10.71519k      2.4446   
   10.96478k      2.4447   
   11.22018k      2.4447   
   11.48154k      2.4447   
   11.74898k      2.4447   
   12.02264k      2.4447   
   12.30269k      2.4448   
   12.58925k      2.4448   
   12.88250k      2.4448   
   13.18257k      2.4448   
   13.48963k      2.4449   
   13.80384k      2.4449   
   14.12538k      2.4449   
   14.45440k      2.4450   
   14.79108k      2.4450   
   15.13561k      2.4450   
   15.48817k      2.4451   
   15.84893k      2.4451   
   16.21810k      2.4451   
   16.59587k      2.4452   
   16.98244k      2.4452   
   17.37801k      2.4453   
   17.78279k      2.4453   
   18.19701k      2.4454   
   18.62087k      2.4454   
   19.05461k      2.4455   
   19.49845k      2.4455   
   19.95262k      2.4456   
   20.41738k      2.4457   
   20.89296k      2.4457   
   21.37962k      2.4458   
   21.87762k      2.4459   
   22.38721k      2.4459   
   22.90868k      2.4460   
   23.44229k      2.4461   
   23.98833k      2.4462   
   24.54709k      2.4463   
   25.11886k      2.4464   
   25.70396k      2.4465   
   26.30268k      2.4466   
   26.91535k      2.4467   
   27.54229k      2.4468   
   28.18383k      2.4469   
   28.84032k      2.4471   
   29.51209k      2.4472   
   30.19952k      2.4473   
   30.90295k      2.4475   
   31.62278k      2.4476   
   32.35937k      2.4478   
   33.11311k      2.4479   
   33.88442k      2.4481   
   34.67369k      2.4483   
   35.48134k      2.4485   
   36.30781k      2.4487   
   37.15352k      2.4489   
   38.01894k      2.4491   
   38.90451k      2.4493   
   39.81072k      2.4496   
   40.73803k      2.4498   
   41.68694k      2.4501   
   42.65795k      2.4504   
   43.65158k      2.4507   
   44.66836k      2.4510   
   45.70882k      2.4513   
   46.77351k      2.4516   
   47.86301k      2.4520   
   48.97788k      2.4523   
   50.11872k      2.4527   
   51.28614k      2.4531   
   52.48075k      2.4535   
   53.70318k      2.4540   
   54.95409k      2.4544   
   56.23413k      2.4549   
   57.54399k      2.4554   
   58.88437k      2.4559   
   60.25596k      2.4565   
   61.65950k      2.4570   
   63.09573k      2.4576   
   64.56542k      2.4583   
   66.06934k      2.4589   
   67.60830k      2.4596   
   69.18310k      2.4603   
   70.79458k      2.4611   
   72.44360k      2.4619   
   74.13102k      2.4627   
   75.85776k      2.4636   
   77.62471k      2.4645   
   79.43282k      2.4654   
   81.28305k      2.4664   
   83.17638k      2.4675   
   85.11380k      2.4686   
   87.09636k      2.4697   
   89.12509k      2.4709   
   91.20108k      2.4722   
   93.32543k      2.4735   
   95.49926k      2.4748   
   97.72372k      2.4763   
  100.00000k      2.4778   
  102.32930k      2.4793   
  104.71285k      2.4810   
  107.15193k      2.4827   
  109.64782k      2.4845   
  112.20185k      2.4864   
  114.81536k      2.4884   
  117.48976k      2.4904   
  120.22644k      2.4926   
  123.02688k      2.4949   
  125.89254k      2.4972   
  128.82496k      2.4997   
  131.82567k      2.5023   
  134.89629k      2.5050   
  138.03843k      2.5079   
  141.25375k      2.5109   
  144.54398k      2.5140   
  147.91084k      2.5172   
  151.35612k      2.5206   
  154.88166k      2.5242   
  158.48932k      2.5279   
  162.18101k      2.5318   
  165.95869k      2.5359   
  169.82437k      2.5402   
  173.78008k      2.5446   
  177.82794k      2.5493   
  181.97009k      2.5542   
  186.20871k      2.5593   
  190.54607k      2.5647   
  194.98446k      2.5703   
  199.52623k      2.5761   
  204.17379k      2.5822   
  208.92961k      2.5886   
  213.79621k      2.5953   
  218.77616k      2.6023   
  223.87211k      2.6096   
  229.08677k      2.6172   
  234.42288k      2.6252   
  239.88329k      2.6335   
  245.47089k      2.6422   
  251.18864k      2.6513   
  257.03958k      2.6608   
  263.02680k      2.6707   
  269.15348k      2.6811   
  275.42287k      2.6920   
  281.83829k      2.7033   
  288.40315k      2.7151   
  295.12092k      2.7274   
  301.99517k      2.7403   
  309.02954k      2.7537   
  316.22777k      2.7678   
  323.59366k      2.7824   
  331.13112k      2.7977   
  338.84416k      2.8136   
  346.73685k      2.8302   
  354.81339k      2.8476   
  363.07805k      2.8656   
  371.53523k      2.8845   
  380.18940k      2.9041   
  389.04514k      2.9246   
  398.10717k      2.9459   
  407.38028k      2.9681   
  416.86938k      2.9912   
  426.57952k      3.0153   
  436.51583k      3.0403   
  446.68359k      3.0664   
  457.08819k      3.0935   
  467.73514k      3.1217   
  478.63009k      3.1511   
  489.77882k      3.1816   
  501.18723k      3.2133   
  512.86138k      3.2462   
  524.80746k      3.2804   
  537.03180k      3.3159   
  549.54087k      3.3528   
  562.34133k      3.3910   
  575.43994k      3.4307   
  588.84366k      3.4718   
  602.55959k      3.5144   
  616.59500k      3.5586   
  630.95734k      3.6043   
  645.65423k      3.6517   
  660.69345k      3.7007   
  676.08298k      3.7514   
  691.83097k      3.8038   
  707.94578k      3.8580   
  724.43596k      3.9139   
  741.31024k      3.9717   
  758.57758k      4.0314   
  776.24712k      4.0929   
  794.32823k      4.1563   
  812.83052k      4.2217   
  831.76377k      4.2891   
  851.13804k      4.3584   
  870.96359k      4.4298   
  891.25094k      4.5031   
  912.01084k      4.5786   
  933.25430k      4.6561   
  954.99259k      4.7357   
  977.23722k      4.8174   
    1.00000x      4.9012   
    1.02329x      4.9871   
    1.04713x      5.0751   
    1.07152x      5.1652   
    1.09648x      5.2574   
    1.12202x      5.3517   
    1.14815x      5.4481   
    1.17490x      5.5466   
    1.20226x      5.6472   
    1.23027x      5.7499   
    1.25893x      5.8545   
    1.28825x      5.9612   
    1.31826x      6.0699   
    1.34896x      6.1805   
    1.38038x      6.2931   
    1.41254x      6.4076   
    1.44544x      6.5239   
    1.47911x      6.6421   
    1.51356x      6.7621   
    1.54882x      6.8838   
    1.58489x      7.0072   
    1.62181x      7.1322   
    1.65959x      7.2588   
    1.69824x      7.3870   
    1.73780x      7.5167   
    1.77828x      7.6479   
    1.81970x      7.7804   
    1.86209x      7.9142   
    1.90546x      8.0494   
    1.94984x      8.1857   
    1.99526x      8.3231   
    2.04174x      8.4617   
    2.08930x      8.6012   
    2.13796x      8.7417   
    2.18776x      8.8830   
    2.23872x      9.0252   
    2.29087x      9.1681   
    2.34423x      9.3116   
    2.39883x      9.4558   
    2.45471x      9.6004   
    2.51189x      9.7455   
    2.57040x      9.8910   
    2.63027x     10.0368   
    2.69153x     10.1827   
    2.75423x     10.3289   
    2.81838x     10.4751   
    2.88403x     10.6212   
    2.95121x     10.7673   
    3.01995x     10.9133   
    3.09030x     11.0589   
    3.16228x     11.2043   
    3.23594x     11.3492   
    3.31131x     11.4937   
    3.38844x     11.6376   
    3.46737x     11.7808   
    3.54813x     11.9233   
    3.63078x     12.0650   
    3.71535x     12.2059   
    3.80189x     12.3457   
    3.89045x     12.4845   
    3.98107x     12.6222   
    4.07380x     12.7586   
    4.16869x     12.8938   
    4.26580x     13.0276   
    4.36516x     13.1599   
    4.46684x     13.2906   
    4.57088x     13.4198   
    4.67735x     13.5473   
    4.78630x     13.6729   
    4.89779x     13.7967   
    5.01187x     13.9186   
    5.12861x     14.0384   
    5.24807x     14.1562   
    5.37032x     14.2717   
    5.49541x     14.3851   
    5.62341x     14.4961   
    5.75440x     14.6047   
    5.88844x     14.7108   
    6.02560x     14.8143   
    6.16595x     14.9153   
    6.30957x     15.0136   
    6.45654x     15.1091   
    6.60693x     15.2018   
    6.76083x     15.2916   
    6.91831x     15.3785   
    7.07946x     15.4624   
    7.24436x     15.5432   
    7.41310x     15.6208   
    7.58578x     15.6954   
    7.76247x     15.7666   
    7.94328x     15.8346   
    8.12831x     15.8993   
    8.31764x     15.9606   
    8.51138x     16.0185   
    8.70964x     16.0729   
    8.91251x     16.1238   
    9.12011x     16.1712   
    9.33254x     16.2150   
    9.54993x     16.2553   
    9.77237x     16.2918   
   10.00000x     16.3248   
   10.23293x     16.3540   
   10.47129x     16.3796   
   10.71519x     16.4014   
   10.96478x     16.4194   
   11.22018x     16.4337   
   11.48154x     16.4443   
   11.74898x     16.4510   
   12.02264x     16.4540   
   12.30269x     16.4531   
   12.58925x     16.4485   
   12.88250x     16.4401   
   13.18257x     16.4278   
   13.48963x     16.4118   
   13.80384x     16.3920   
   14.12538x     16.3683   
   14.45440x     16.3410   
   14.79108x     16.3098   
   15.13561x     16.2749   
   15.48817x     16.2363   
   15.84893x     16.1940   
   16.21810x     16.1480   
   16.59587x     16.0983   
   16.98244x     16.0450   
   17.37801x     15.9881   
   17.78279x     15.9276   
   18.19701x     15.8636   
   18.62087x     15.7961   
   19.05461x     15.7251   
   19.49845x     15.6507   
   19.95262x     15.5728   
   20.41738x     15.4917   
   20.89296x     15.4072   
   21.37962x     15.3195   
   21.87762x     15.2286   
   22.38721x     15.1345   
   22.90868x     15.0373   
   23.44229x     14.9371   
   23.98833x     14.8339   
   24.54709x     14.7277   
   25.11886x     14.6187   
   25.70396x     14.5068   
   26.30268x     14.3922   
   26.91535x     14.2748   
   27.54229x     14.1548   
   28.18383x     14.0323   
   28.84032x     13.9072   
   29.51209x     13.7796   
   30.19952x     13.6497   
   30.90295x     13.5174   
   31.62278x     13.3828   
   32.35937x     13.2461   
   33.11311x     13.1072   
   33.88442x     12.9662   
   34.67369x     12.8231   
   35.48134x     12.6782   
   36.30781x     12.5313   
   37.15352x     12.3826   
   38.01894x     12.2321   
   38.90451x     12.0799   
   39.81072x     11.9261   
   40.73803x     11.7706   
   41.68694x     11.6137   
   42.65795x     11.4552   
   43.65158x     11.2954   
   44.66836x     11.1341   
   45.70882x     10.9716   
   46.77351x     10.8078   
   47.86301x     10.6428   
   48.97788x     10.4767   
   50.11872x     10.3095   
   51.28614x     10.1412   
   52.48075x      9.9720   
   53.70318x      9.8018   
   54.95409x      9.6308   
   56.23413x      9.4589   
   57.54399x      9.2862   
   58.88437x      9.1127   
   60.25596x      8.9386   
   61.65950x      8.7638   
   63.09573x      8.5884   
   64.56542x      8.4125   
   66.06934x      8.2361   
   67.60830x      8.0591   
   69.18310x      7.8818   
   70.79458x      7.7041   
   72.44360x      7.5260   
   74.13102x      7.3477   
   75.85776x      7.1691   
   77.62471x      6.9902   
   79.43282x      6.8113   
   81.28305x      6.6322   
   83.17638x      6.4530   
   85.11380x      6.2737   
   87.09636x      6.0945   
   89.12509x      5.9153   
   91.20108x      5.7362   
   93.32543x      5.5573   
   95.49926x      5.3785   
   97.72372x      5.1999   
  100.00000x      5.0215   
  102.32930x      4.8435   
  104.71285x      4.6658   
  107.15193x      4.4885   
  109.64782x      4.3116   
  112.20185x      4.1352   
  114.81536x      3.9593   
  117.48976x      3.7840   
  120.22644x      3.6092   
  123.02688x      3.4351   
  125.89254x      3.2617   
  128.82496x      3.0891   
  131.82567x      2.9172   
  134.89629x      2.7462   
  138.03843x      2.5760   
  141.25375x      2.4068   
  144.54398x      2.2386   
  147.91084x      2.0713   
  151.35612x      1.9051   
  154.88166x      1.7401   
  158.48932x      1.5762   
  162.18101x      1.4135   
  165.95869x      1.2521   
  169.82437x      1.0920   
  173.78008x    933.2173m  
  177.82794x    775.8543m  
  181.97009x    619.9394m  
  186.20871x    465.5189m  
  190.54607x    312.6392m  
  194.98446x    161.3464m  
  199.52623x     11.6861m  
  204.17379x   -136.2977m  
  208.92961x   -282.5601m  
  213.79621x   -427.0597m  
  218.77616x   -569.7533m  
  223.87211x   -710.6009m  
  229.08677x   -849.5608m  
  234.42288x   -986.5960m  
  239.88329x     -1.1217   
  245.47089x     -1.2547   
  251.18864x     -1.3858   
  257.03958x     -1.5148   
  263.02680x     -1.6417   
  269.15348x     -1.7664   
  275.42287x     -1.8890   
  281.83829x     -2.0095   
  288.40315x     -2.1277   
  295.12092x     -2.2437   
  301.99517x     -2.3575   
  309.02954x     -2.4690   
  316.22777x     -2.5783   
  323.59366x     -2.6853   
  331.13112x     -2.7900   
  338.84416x     -2.8924   
  346.73685x     -2.9925   
  354.81339x     -3.0903   
  363.07805x     -3.1858   
  371.53523x     -3.2791   
  380.18940x     -3.3700   
  389.04514x     -3.4587   
  398.10717x     -3.5451   
  407.38028x     -3.6293   
  416.86938x     -3.7112   
  426.57952x     -3.7909   
  436.51583x     -3.8684   
  446.68359x     -3.9438   
  457.08819x     -4.0170   
  467.73514x     -4.0881   
  478.63009x     -4.1571   
  489.77882x     -4.2240   
  501.18723x     -4.2889   
  512.86138x     -4.3517   
  524.80746x     -4.4127   
  537.03180x     -4.4716   
  549.54087x     -4.5287   
  562.34133x     -4.5840   
  575.43994x     -4.6374   
  588.84366x     -4.6890   
  602.55959x     -4.7389   
  616.59500x     -4.7870   
  630.95734x     -4.8335   
  645.65423x     -4.8784   
  660.69345x     -4.9217   
  676.08298x     -4.9635   
  691.83097x     -5.0038   
  707.94578x     -5.0426   
  724.43596x     -5.0799   
  741.31024x     -5.1160   
  758.57758x     -5.1506   
  776.24712x     -5.1840   
  794.32823x     -5.2161   
  812.83052x     -5.2470   
  831.76377x     -5.2767   
  851.13804x     -5.3052   
  870.96359x     -5.3326   
  891.25094x     -5.3590   
  912.01084x     -5.3844   
  933.25430x     -5.4087   
  954.99259x     -5.4320   
  977.23722x     -5.4545   
    1.00000g     -5.4760   
y
 

          ***** job concluded
1****** HSPICE -- B-2008.09-SP1 32-BIT (Nov 24 2008) linux ******               
 ******  
 *3.1

  ******  job statistics summary tnom=  25.000 temp=  25.000 *****

  ******  HSPICE Threads Information  ******
  Command Line Threads Count:                      0
  Available CPU Count:                             8
  Actual Model Evaluation(Load) Threads Count:     1
  Actual Solver Threads Count:                     1


  ******  Circuit Statistics  ******
  # nodes       =      14  # elements   =       9
  # resistors   =       2  # capacitors =       0  # inductors   =       0
  # mutual_inds =       0  # vccs       =       0  # vcvs        =       0
  # cccs        =       0  # ccvs       =       0  # volt_srcs   =       4
  # curr_srcs   =       0  # diodes     =       0  # bjts        =       0
  # jfets       =       0  # mosfets    =       3  # U elements  =       0
  # T elements  =       0  # W elements =       0  # B elements  =       0
  # S elements  =       0  # P elements =       0  # va device   =       0


  ******  Runtime Statistics (seconds)  ******

  analysis           time    # points   tot. iter  conv.iter
  op point           0.02           1         480
  ac analysis        0.55      102714      102714
  readin             0.01
  errchk             0.01
  setup              0.00
  output             0.17


           total memory used          209  kbytes
           total cpu time            0.75 seconds
           total elapsed time        1.10 seconds
           job started at     14:57:08 05/05/2016
           job ended   at     14:57:09 05/05/2016


 Init: hspice initialization file: /usr/cad/synopsys/hspice/cur/hspice/hspice.ini
 lic: Release hspice token(s) 
