***** HSPICE -- B-2008.09-SP1 32-BIT (Nov 24 2008) linux ******
 Input File: 12_cmr.sp
 lic:
 lic: FLEXlm: v8.5b
 lic: USER:   u102061112           HOSTNAME: ws36
 lic: HOSTID: e41f1366b708         PID:      6494
 lic: Using FLEXlm license file:
 lic: 26585@lsnctu
 lic: Checkout 1 hspice
 lic: License/Maintenance for hspice will expire on 14-jun-2017/2016.03
 lic: FLOATING license(s) on SERVER lsnctu
 lic:
 Init: hspice initialization file: /usr/cad/synopsys/hspice/cur/hspice/hspice.in
 init: begin read circuit files,  cpu clock=  5.00E-02
       option search   = /usr/cad/synopsys/hspice/cur/hspice/parts/ad
       option search   = /usr/cad/synopsys/hspice/cur/hspice/parts/behave
       option search   = /usr/cad/synopsys/hspice/cur/hspice/parts/bjt
       option search   = /usr/cad/synopsys/hspice/cur/hspice/parts/burr_b
                         rn
       option search   = /usr/cad/synopsys/hspice/cur/hspice/parts/comlin
                         ear
       option search   = /usr/cad/synopsys/hspice/cur/hspice/parts/dio
       option search   = /usr/cad/synopsys/hspice/cur/hspice/parts/fet
       option search   = /usr/cad/synopsys/hspice/cur/hspice/parts/lin_te
                         ch
       option search   = /usr/cad/synopsys/hspice/cur/hspice/parts/pci
       option search   = /usr/cad/synopsys/hspice/cur/hspice/parts/signet
       option search   = /usr/cad/synopsys/hspice/cur/hspice/parts/ti
       option search   = /usr/cad/synopsys/hspice/cur/hspice/parts/tline
       option search   = /usr/cad/synopsys/hspice/cur/hspice/parts/xilinx
       option runlvl
       option post
       option acout    =     0.00
       option accura
 init: end read circuit files,  cpu clock=  6.00E-02 memory=    284 kb
 init: begin check errors,  cpu clock=  6.00E-02
 init: end check errors,  cpu clock=  6.00E-02 memory=    579 kb
 init: begin setup matrix, pivot=    10 cpu clock=  6.00E-02
       establish matrix -- done,  cpu clock=  6.00E-02 memory=    613 kb
       re-order matrix -- done,  cpu clock=  6.00E-02 memory=    627 kb
 init: end setup matrix,  cpu clock=  6.00E-02 memory=    673 kb
 dcop: begin dcop,  cpu clock=  6.00E-02
 dcop: end dcop,  cpu clock=  1.00E-01 memory=    673 kb  tot_iter=     238
 output: 12_cmr.ma0
 sweep: ac ac0    begin, #sweeps=  81 cpu clock=  1.00E-01
 ac: frequency=    1.26E+01
 ac: frequency=    6.31E+01
 ac: frequency=    3.98E+02
 ac: frequency=    2.51E+03
 ac: frequency=    1.58E+04
 ac: frequency=    1.00E+05
 ac: frequency=    6.31E+05
 ac: frequency=    3.98E+06
 ac: frequency=    2.51E+07
 ac: frequency=    1.58E+08
 ac: frequency=    1.00E+09
 sweep: ac ac0    end,  cpu clock=  1.00E-01 memory=    675 kb
>info:         ***** hspice job concluded
>alter:
 init: begin read circuit files,  cpu clock=  1.10E-01
       option search   = /usr/cad/synopsys/hspice/cur/hspice/parts/ad
       option search   = /usr/cad/synopsys/hspice/cur/hspice/parts/behave
       option search   = /usr/cad/synopsys/hspice/cur/hspice/parts/bjt
       option search   = /usr/cad/synopsys/hspice/cur/hspice/parts/burr_b
                         rn
       option search   = /usr/cad/synopsys/hspice/cur/hspice/parts/comlin
                         ear
       option search   = /usr/cad/synopsys/hspice/cur/hspice/parts/dio
       option search   = /usr/cad/synopsys/hspice/cur/hspice/parts/fet
       option search   = /usr/cad/synopsys/hspice/cur/hspice/parts/lin_te
                         ch
       option search   = /usr/cad/synopsys/hspice/cur/hspice/parts/pci
       option search   = /usr/cad/synopsys/hspice/cur/hspice/parts/signet
       option search   = /usr/cad/synopsys/hspice/cur/hspice/parts/ti
       option search   = /usr/cad/synopsys/hspice/cur/hspice/parts/tline
       option search   = /usr/cad/synopsys/hspice/cur/hspice/parts/xilinx
       option runlvl
       option post
       option acout    =     0.00
       option accura
 init: end read circuit files,  cpu clock=  1.10E-01 memory=    284 kb
 init: begin check errors,  cpu clock=  1.10E-01
 init: end check errors,  cpu clock=  1.20E-01 memory=    579 kb
 init: begin setup matrix, pivot=    10 cpu clock=  1.20E-01
       establish matrix -- done,  cpu clock=  1.20E-01 memory=    613 kb
       re-order matrix -- done,  cpu clock=  1.20E-01 memory=    627 kb
 init: end setup matrix,  cpu clock=  1.20E-01 memory=    673 kb
 dcop: begin dcop,  cpu clock=  1.20E-01
 dcop: end dcop,  cpu clock=  1.50E-01 memory=    673 kb  tot_iter=     238
 output: 12_cmr.ma1
 sweep: ac ac0    begin, #sweeps=  81 cpu clock=  1.50E-01
 ac: frequency=    1.26E+01
 ac: frequency=    6.31E+01
 ac: frequency=    3.98E+02
 ac: frequency=    2.51E+03
 ac: frequency=    1.58E+04
 ac: frequency=    1.00E+05
 ac: frequency=    6.31E+05
 ac: frequency=    3.98E+06
 ac: frequency=    2.51E+07
 ac: frequency=    1.58E+08
 ac: frequency=    1.00E+09
 sweep: ac ac0    end,  cpu clock=  1.50E-01 memory=    675 kb
>info:         ***** hspice job concluded
>alter:
 init: begin read circuit files,  cpu clock=  1.60E-01
       option search   = /usr/cad/synopsys/hspice/cur/hspice/parts/ad
       option search   = /usr/cad/synopsys/hspice/cur/hspice/parts/behave
       option search   = /usr/cad/synopsys/hspice/cur/hspice/parts/bjt
       option search   = /usr/cad/synopsys/hspice/cur/hspice/parts/burr_b
                         rn
       option search   = /usr/cad/synopsys/hspice/cur/hspice/parts/comlin
                         ear
       option search   = /usr/cad/synopsys/hspice/cur/hspice/parts/dio
       option search   = /usr/cad/synopsys/hspice/cur/hspice/parts/fet
       option search   = /usr/cad/synopsys/hspice/cur/hspice/parts/lin_te
                         ch
       option search   = /usr/cad/synopsys/hspice/cur/hspice/parts/pci
       option search   = /usr/cad/synopsys/hspice/cur/hspice/parts/signet
       option search   = /usr/cad/synopsys/hspice/cur/hspice/parts/ti
       option search   = /usr/cad/synopsys/hspice/cur/hspice/parts/tline
       option search   = /usr/cad/synopsys/hspice/cur/hspice/parts/xilinx
       option runlvl
       option post
       option acout    =     0.00
       option accura
 init: end read circuit files,  cpu clock=  1.70E-01 memory=    284 kb
 init: begin check errors,  cpu clock=  1.70E-01
 init: end check errors,  cpu clock=  1.80E-01 memory=    579 kb
 init: begin setup matrix, pivot=    10 cpu clock=  1.80E-01
       establish matrix -- done,  cpu clock=  1.80E-01 memory=    613 kb
       re-order matrix -- done,  cpu clock=  1.80E-01 memory=    627 kb
 init: end setup matrix,  cpu clock=  1.80E-01 memory=    673 kb
 dcop: begin dcop,  cpu clock=  1.80E-01
 dcop: end dcop,  cpu clock=  2.00E-01 memory=    673 kb  tot_iter=     240
 output: 12_cmr.ma2
 sweep: ac ac0    begin, #sweeps=  81 cpu clock=  2.00E-01
 ac: frequency=    1.26E+01
 ac: frequency=    6.31E+01
 ac: frequency=    3.98E+02
 ac: frequency=    2.51E+03
 ac: frequency=    1.58E+04
 ac: frequency=    1.00E+05
 ac: frequency=    6.31E+05
 ac: frequency=    3.98E+06
 ac: frequency=    2.51E+07
 ac: frequency=    1.58E+08
 ac: frequency=    1.00E+09
 sweep: ac ac0    end,  cpu clock=  2.10E-01 memory=    675 kb
>info:         ***** hspice job concluded
>alter:
 init: begin read circuit files,  cpu clock=  2.20E-01
       option search   = /usr/cad/synopsys/hspice/cur/hspice/parts/ad
       option search   = /usr/cad/synopsys/hspice/cur/hspice/parts/behave
       option search   = /usr/cad/synopsys/hspice/cur/hspice/parts/bjt
       option search   = /usr/cad/synopsys/hspice/cur/hspice/parts/burr_b
                         rn
       option search   = /usr/cad/synopsys/hspice/cur/hspice/parts/comlin
                         ear
       option search   = /usr/cad/synopsys/hspice/cur/hspice/parts/dio
       option search   = /usr/cad/synopsys/hspice/cur/hspice/parts/fet
       option search   = /usr/cad/synopsys/hspice/cur/hspice/parts/lin_te
                         ch
       option search   = /usr/cad/synopsys/hspice/cur/hspice/parts/pci
       option search   = /usr/cad/synopsys/hspice/cur/hspice/parts/signet
       option search   = /usr/cad/synopsys/hspice/cur/hspice/parts/ti
       option search   = /usr/cad/synopsys/hspice/cur/hspice/parts/tline
       option search   = /usr/cad/synopsys/hspice/cur/hspice/parts/xilinx
       option runlvl
       option post
       option acout    =     0.00
       option accura
 init: end read circuit files,  cpu clock=  2.30E-01 memory=    284 kb
 init: begin check errors,  cpu clock=  2.30E-01
 init: end check errors,  cpu clock=  2.40E-01 memory=    579 kb
 init: begin setup matrix, pivot=    10 cpu clock=  2.40E-01
       establish matrix -- done,  cpu clock=  2.40E-01 memory=    613 kb
       re-order matrix -- done,  cpu clock=  2.40E-01 memory=    627 kb
 init: end setup matrix,  cpu clock=  2.40E-01 memory=    673 kb
 dcop: begin dcop,  cpu clock=  2.40E-01
 dcop: end dcop,  cpu clock=  2.60E-01 memory=    673 kb  tot_iter=     238
 output: 12_cmr.ma3
 sweep: ac ac0    begin, #sweeps=  81 cpu clock=  2.60E-01
 ac: frequency=    1.26E+01
 ac: frequency=    6.31E+01
 ac: frequency=    3.98E+02
 ac: frequency=    2.51E+03
 ac: frequency=    1.58E+04
 ac: frequency=    1.00E+05
 ac: frequency=    6.31E+05
 ac: frequency=    3.98E+06
 ac: frequency=    2.51E+07
 ac: frequency=    1.58E+08
 ac: frequency=    1.00E+09
 sweep: ac ac0    end,  cpu clock=  2.70E-01 memory=    675 kb
>info:         ***** hspice job concluded
>alter:
 init: begin read circuit files,  cpu clock=  2.70E-01
       option search   = /usr/cad/synopsys/hspice/cur/hspice/parts/ad
       option search   = /usr/cad/synopsys/hspice/cur/hspice/parts/behave
       option search   = /usr/cad/synopsys/hspice/cur/hspice/parts/bjt
       option search   = /usr/cad/synopsys/hspice/cur/hspice/parts/burr_b
                         rn
       option search   = /usr/cad/synopsys/hspice/cur/hspice/parts/comlin
                         ear
       option search   = /usr/cad/synopsys/hspice/cur/hspice/parts/dio
       option search   = /usr/cad/synopsys/hspice/cur/hspice/parts/fet
       option search   = /usr/cad/synopsys/hspice/cur/hspice/parts/lin_te
                         ch
       option search   = /usr/cad/synopsys/hspice/cur/hspice/parts/pci
       option search   = /usr/cad/synopsys/hspice/cur/hspice/parts/signet
       option search   = /usr/cad/synopsys/hspice/cur/hspice/parts/ti
       option search   = /usr/cad/synopsys/hspice/cur/hspice/parts/tline
       option search   = /usr/cad/synopsys/hspice/cur/hspice/parts/xilinx
       option runlvl
       option post
       option acout    =     0.00
       option accura
 init: end read circuit files,  cpu clock=  2.90E-01 memory=    284 kb
 init: begin check errors,  cpu clock=  2.90E-01
 init: end check errors,  cpu clock=  2.90E-01 memory=    579 kb
 init: begin setup matrix, pivot=    10 cpu clock=  2.90E-01
       establish matrix -- done,  cpu clock=  2.90E-01 memory=    613 kb
       re-order matrix -- done,  cpu clock=  2.90E-01 memory=    627 kb
 init: end setup matrix,  cpu clock=  2.90E-01 memory=    673 kb
 dcop: begin dcop,  cpu clock=  2.90E-01
 dcop: end dcop,  cpu clock=  3.20E-01 memory=    673 kb  tot_iter=     238
 output: 12_cmr.ma4
 sweep: ac ac0    begin, #sweeps=  81 cpu clock=  3.20E-01
 ac: frequency=    1.26E+01
 ac: frequency=    6.31E+01
 ac: frequency=    3.98E+02
 ac: frequency=    2.51E+03
 ac: frequency=    1.58E+04
 ac: frequency=    1.00E+05
 ac: frequency=    6.31E+05
 ac: frequency=    3.98E+06
 ac: frequency=    2.51E+07
 ac: frequency=    1.58E+08
 ac: frequency=    1.00E+09
 sweep: ac ac0    end,  cpu clock=  3.20E-01 memory=    675 kb
>info:         ***** hspice job concluded
 Init: hspice initialization file: /usr/cad/synopsys/hspice/cur/hspice/hspice.in
 lic: Release hspice token(s)
